version 2
run Basic-12-20180510-16:07:07-23204
attr configname Basic
attr datetime 20180510-16:07:07
attr experiment Basic
attr inifile omnetpp.ini
attr iterationvars "$0=exponential(0.5 ms), $1=7, $2=2"
attr iterationvarsf exponential(0.5_ms),7,2-
attr measurement "$0=exponential(0.5 ms), $1=7, $2=2"
attr network Networks.Basic
attr processid 23204
attr repetition 0
attr replication #0
attr resultdir results
attr runnumber 12
attr seedset 12
param **.frameCapacity 50
param **.packetLength "1024 bytes"
param **.pattern 7
param **.sendIaTime "exponential(0.5 ms)"
param **.tp 2

statistic Basic.rack[0].node[0].app 	throughput
field count 19922
field mean 9961.5
field stddev 5751.1303671539
field sum 198453003
field sqrsum 2635786634845
field min 1
field max 19922
statistic Basic.rack[0].node[0].app 	"End-to-End Delay"
field count 19922
field mean 9.4330332274888e-006
field stddev 6.5456861764653e-006
field sum 0.18792488795803
field sqrsum 2.6262370282015e-006
field min 4e-007
field max 3.7679005e-005
statistic Basic.rack[0].node[0].app 	hops
field count 19922
field mean 3.0021082220661
field stddev 0.70878767880762
field sum 59808
field sqrsum 189558
field min 2
field max 4
statistic Basic.rack[0].node[1].app 	throughput
field count 19907
field mean 9954
field stddev 5746.8002401336
field sum 198154278
field sqrsum 2629837526190
field min 1
field max 19907
statistic Basic.rack[0].node[1].app 	"End-to-End Delay"
field count 19907
field mean 9.4573758448302e-006
field stddev 6.498150442711e-006
field sum 0.18826798094304
field sqrsum 2.6210709986852e-006
field min 4e-007
field max 4.1764268e-005
statistic Basic.rack[0].node[1].app 	hops
field count 19907
field mean 3.0055759280655
field stddev 0.70245157356311
field sum 59832
field sqrsum 189652
field min 2
field max 4
statistic Basic.rack[0].node[2].app 	throughput
field count 19998
field mean 9999.5
field stddev 5773.06967739
field sum 199970001
field sqrsum 2666066709999
field min 1
field max 19998
statistic Basic.rack[0].node[2].app 	"End-to-End Delay"
field count 19998
field mean 9.3634111692686e-006
field stddev 6.5281975040349e-006
field sum 0.18724949656303
field sqrsum 2.605513428504e-006
field min 4e-007
field max 3.7817246e-005
statistic Basic.rack[0].node[2].app 	hops
field count 19998
field mean 2.9941494149415
field stddev 0.70639268305299
field sum 59877
field sqrsum 189259
field min 2
field max 4
statistic Basic.rack[0].node[3].app 	throughput
field count 20171
field mean 10086
field stddev 5823.0104756904
field sum 203444706
field sqrsum 2735856591386
field min 1
field max 20171
statistic Basic.rack[0].node[3].app 	"End-to-End Delay"
field count 20171
field mean 9.420368648854e-006
field stddev 6.5485547678883e-006
field sum 0.19001825601603
field sqrsum 2.6550036194672e-006
field min 4e-007
field max 4.2162999e-005
statistic Basic.rack[0].node[3].app 	hops
field count 20171
field mean 3.0028258390759
field stddev 0.70885184865403
field sum 60570
field sqrsum 192016
field min 2
field max 4
statistic Basic.rack[0].node[4].app 	throughput
field count 19805
field mean 9903
field stddev 5717.3553763956
field sum 196128915
field sqrsum 2589620817355
field min 1
field max 19805
statistic Basic.rack[0].node[4].app 	"End-to-End Delay"
field count 19805
field mean 9.3955058386789e-006
field stddev 6.5412157333504e-006
field sum 0.18607799313503
field sqrsum 2.5956605857135e-006
field min 4e-007
field max 4.8047087e-005
statistic Basic.rack[0].node[4].app 	hops
field count 19805
field mean 2.9984347387023
field stddev 0.70685506710123
field sum 59384
field sqrsum 187954
field min 2
field max 4
statistic Basic.rack[0].node[5].app 	throughput
field count 19924
field mean 9962.5
field stddev 5751.7077174233
field sum 198492850
field sqrsum 2636580526550
field min 1
field max 19924
statistic Basic.rack[0].node[5].app 	"End-to-End Delay"
field count 19924
field mean 9.4526096958962e-006
field stddev 6.5263969634954e-006
field sum 0.18833379558104
field sqrsum 2.6288432816626e-006
field min 4e-007
field max 3.69828e-005
statistic Basic.rack[0].node[5].app 	hops
field count 19924
field mean 3.003463160008
field stddev 0.70573051941033
field sum 59841
field sqrsum 189653
field min 2
field max 4
statistic Basic.rack[0].node[6].app 	throughput
field count 20043
field mean 10022
field stddev 5786.0600584508
field sum 200870946
field sqrsum 2684104537434
field min 1
field max 20043
statistic Basic.rack[0].node[6].app 	"End-to-End Delay"
field count 20043
field mean 9.3107934410533e-006
field stddev 6.5851748941179e-006
field sum 0.18661623293903
field sqrsum 2.6066570755574e-006
field min 4e-007
field max 4.2856693e-005
statistic Basic.rack[0].node[6].app 	hops
field count 20043
field mean 2.9869779973058
field stddev 0.71001507583166
field sum 59868
field sqrsum 188928
field min 2
field max 4
statistic Basic.rack[0].node[7].app 	throughput
field count 20105
field mean 10053
field stddev 5803.9579168013
field sum 202115565
field sqrsum 2709089661405
field min 1
field max 20105
statistic Basic.rack[0].node[7].app 	"End-to-End Delay"
field count 20105
field mean 9.412017525095e-006
field stddev 6.5377316561122e-006
field sum 0.18922861234203
field sqrsum 2.6403068810208e-006
field min 4e-007
field max 4.1092485e-005
statistic Basic.rack[0].node[7].app 	hops
field count 20105
field mean 2.9991544391942
field stddev 0.70735244002294
field sum 60298
field sqrsum 190902
field min 2
field max 4
statistic Basic.rack[0].node[8].app 	throughput
field count 19888
field mean 9944.5
field stddev 5741.3154125746
field sum 197776216
field sqrsum 2622314847944
field min 1
field max 19888
statistic Basic.rack[0].node[8].app 	"End-to-End Delay"
field count 19888
field mean 9.4075275035214e-006
field stddev 6.5337974404339e-006
field sum 0.18709690699003
field sqrsum 2.6091054506688e-006
field min 4e-007
field max 3.5192439e-005
statistic Basic.rack[0].node[8].app 	hops
field count 19888
field mean 3.0005530973451
field stddev 0.70751534349276
field sum 59675
field sqrsum 189013
field min 2
field max 4
statistic Basic.rack[0].node[9].app 	throughput
field count 19903
field mean 9952
field stddev 5745.6455395949
field sum 198074656
field sqrsum 2628252610464
field min 1
field max 19903
statistic Basic.rack[0].node[9].app 	"End-to-End Delay"
field count 19903
field mean 9.397531047884e-006
field stddev 6.5581518809134e-006
field sum 0.18703906044603
field sqrsum 2.6136775826741e-006
field min 4e-007
field max 4.0724841e-005
statistic Basic.rack[0].node[9].app 	hops
field count 19903
field mean 2.9973370848616
field stddev 0.70688855648411
field sum 59656
field sqrsum 188754
field min 2
field max 4
statistic Basic.rack[0].eps.queue[0] 	dropsum
field count 0
field mean nan
field stddev nan
field sum 0
field sqrsum 0
field min nan
field max nan
statistic Basic.rack[0].eps.queue[1] 	dropsum
field count 0
field mean nan
field stddev nan
field sum 0
field sqrsum 0
field min nan
field max nan
statistic Basic.rack[0].eps.queue[2] 	dropsum
field count 0
field mean nan
field stddev nan
field sum 0
field sqrsum 0
field min nan
field max nan
statistic Basic.rack[0].eps.queue[3] 	dropsum
field count 0
field mean nan
field stddev nan
field sum 0
field sqrsum 0
field min nan
field max nan
statistic Basic.rack[1].node[0].app 	throughput
field count 20021
field mean 10011
field stddev 5779.7092054878
field sum 200430231
field sqrsum 2675275913311
field min 1
field max 20021
statistic Basic.rack[1].node[0].app 	"End-to-End Delay"
field count 20021
field mean 9.4119764503289e-006
field stddev 6.5819024158621e-006
field sum 0.18843718051203
field sqrsum 2.6408615223725e-006
field min 4e-007
field max 4.9050213e-005
statistic Basic.rack[1].node[0].app 	hops
field count 20021
field mean 2.9997502622247
field stddev 0.71066510585006
field sum 60058
field sqrsum 190270
field min 2
field max 4
statistic Basic.rack[1].node[1].app 	throughput
field count 20228
field mean 10114.5
field stddev 5839.4649583673
field sum 204596106
field sqrsum 2759114886814
field min 1
field max 20228
statistic Basic.rack[1].node[1].app 	"End-to-End Delay"
field count 20228
field mean 9.3915541413405e-006
field stddev 6.5580499700612e-006
field sum 0.18997235717104
field sqrsum 2.6540588863323e-006
field min 4e-007
field max 3.9592711e-005
statistic Basic.rack[1].node[1].app 	hops
field count 20228
field mean 2.9976764880364
field stddev 0.70792401742204
field sum 60637
field sqrsum 191907
field min 2
field max 4
statistic Basic.rack[1].node[2].app 	throughput
field count 20087
field mean 10044
field stddev 5798.7617643769
field sum 201753828
field sqrsum 2701820013300
field min 1
field max 20087
statistic Basic.rack[1].node[2].app 	"End-to-End Delay"
field count 20087
field mean 9.369770400161e-006
field stddev 6.5393081034347e-006
field sum 0.18821057802803
field sqrsum 2.6224184917778e-006
field min 4e-007
field max 3.6958172e-005
statistic Basic.rack[1].node[2].app 	hops
field count 20087
field mean 2.9940259869567
field stddev 0.70591881545507
field sum 60141
field sqrsum 190073
field min 2
field max 4
statistic Basic.rack[1].node[3].app 	throughput
field count 20311
field mean 10156
field stddev 5863.424994546
field sum 206278516
field sqrsum 2793217385156
field min 1
field max 20311
statistic Basic.rack[1].node[3].app 	"End-to-End Delay"
field count 20311
field mean 9.4364305716625e-006
field stddev 6.5666246101344e-006
field sum 0.19166334134104
field sqrsum 2.6843963623248e-006
field min 4e-007
field max 4.0980686e-005
statistic Basic.rack[1].node[3].app 	hops
field count 20311
field mean 3.001033922505
field stddev 0.70592129785167
field sum 60954
field sqrsum 193046
field min 2
field max 4
statistic Basic.rack[1].node[4].app 	throughput
field count 19747
field mean 9874
field stddev 5700.6122185838
field sum 194981878
field sqrsum 2566936423870
field min 1
field max 19747
statistic Basic.rack[1].node[4].app 	"End-to-End Delay"
field count 19747
field mean 9.4383812348728e-006
field stddev 6.5600954345341e-006
field sum 0.18637971424503
field sqrsum 2.6088889872592e-006
field min 4e-007
field max 3.7694818e-005
statistic Basic.rack[1].node[4].app 	hops
field count 19747
field mean 3.0008102496582
field stddev 0.70484666691653
field sum 59257
field sqrsum 187629
field min 2
field max 4
statistic Basic.rack[1].node[5].app 	throughput
field count 19694
field mean 9847.5
field stddev 5685.3124364453
field sum 193936665
field sqrsum 2546323765895
field min 1
field max 19694
statistic Basic.rack[1].node[5].app 	"End-to-End Delay"
field count 19694
field mean 9.4937817781575e-006
field stddev 6.6191094944734e-006
field sum 0.18697053833903
field sqrsum 2.6378592285085e-006
field min 4e-007
field max 4.2053643e-005
statistic Basic.rack[1].node[5].app 	hops
field count 19694
field mean 3.005483903727
field stddev 0.70929039353219
field sum 59190
field sqrsum 187802
field min 2
field max 4
statistic Basic.rack[1].node[6].app 	throughput
field count 20007
field mean 10004
field stddev 5775.6677536022
field sum 200150028
field sqrsum 2669667790140
field min 1
field max 20007
statistic Basic.rack[1].node[6].app 	"End-to-End Delay"
field count 20007
field mean 9.3434214518935e-006
field stddev 6.5884019224704e-006
field sum 0.18693383298803
field sqrsum 2.6150028253047e-006
field min 4e-007
field max 4.149466e-005
statistic Basic.rack[1].node[6].app 	hops
field count 20007
field mean 2.9900534812816
field stddev 0.70753152006337
field sum 59822
field sqrsum 188886
field min 2
field max 4
statistic Basic.rack[1].node[7].app 	throughput
field count 19651
field mean 9826
field stddev 5672.8994056538
field sum 193090726
field sqrsum 2529681601326
field min 1
field max 19651
statistic Basic.rack[1].node[7].app 	"End-to-End Delay"
field count 19651
field mean 9.446569250625e-006
field stddev 6.5816692368866e-006
field sum 0.18563453234403
field sqrsum 2.6048154344906e-006
field min 4e-007
field max 3.9309695e-005
statistic Basic.rack[1].node[7].app 	hops
field count 19651
field mean 3.0033077197089
field stddev 0.71219064971246
field sum 59018
field sqrsum 187216
field min 2
field max 4
statistic Basic.rack[1].node[8].app 	throughput
field count 19875
field mean 9938
field stddev 5737.5626358237
field sum 197517750
field sqrsum 2617176026750
field min 1
field max 19875
statistic Basic.rack[1].node[8].app 	"End-to-End Delay"
field count 19875
field mean 9.3988751636243e-006
field stddev 6.5808810418927e-006
field sum 0.18680264387703
field sqrsum 2.6164378283798e-006
field min 4e-007
field max 4.8812975e-005
statistic Basic.rack[1].node[8].app 	hops
field count 19875
field mean 2.9972327044025
field stddev 0.70923293882521
field sum 59570
field sqrsum 188542
field min 2
field max 4
statistic Basic.rack[1].node[9].app 	throughput
field count 20203
field mean 10102
field stddev 5832.2480800003
field sum 204090706
field sqrsum 2748897719114
field min 1
field max 20203
statistic Basic.rack[1].node[9].app 	"End-to-End Delay"
field count 20203
field mean 9.4798808676452e-006
field stddev 6.5811816219373e-006
field sum 0.19152203316904
field sqrsum 2.6905941030014e-006
field min 4e-007
field max 4.0516827e-005
statistic Basic.rack[1].node[9].app 	hops
field count 20203
field mean 3.0053457407316
field stddev 0.70712157490135
field sum 60717
field sqrsum 192577
field min 2
field max 4
statistic Basic.rack[1].eps.queue[0] 	dropsum
field count 0
field mean nan
field stddev nan
field sum 0
field sqrsum 0
field min nan
field max nan
statistic Basic.rack[1].eps.queue[1] 	dropsum
field count 0
field mean nan
field stddev nan
field sum 0
field sqrsum 0
field min nan
field max nan
statistic Basic.rack[1].eps.queue[2] 	dropsum
field count 0
field mean nan
field stddev nan
field sum 0
field sqrsum 0
field min nan
field max nan
statistic Basic.rack[1].eps.queue[3] 	dropsum
field count 0
field mean nan
field stddev nan
field sum 0
field sqrsum 0
field min nan
field max nan
statistic Basic.rack[2].node[0].app 	throughput
field count 20331
field mean 10166
field stddev 5869.1984972396
field sum 206684946
field sqrsum 2801476653066
field min 1
field max 20331
statistic Basic.rack[2].node[0].app 	"End-to-End Delay"
field count 20331
field mean 7.2618366401556e-006
field stddev 7.464778170037e-006
field sum 0.147640400731
field sqrsum 2.2049872954851e-006
field min 4e-007
field max 3.4995964e-005
statistic Basic.rack[2].node[0].app 	hops
field count 20331
field mean 3.2568983325955
field stddev 0.82786030295143
field sum 66216
field sqrsum 229592
field min 2
field max 4
statistic Basic.rack[2].node[1].app 	throughput
field count 19878
field mean 9939.5
field stddev 5738.4286612277
field sum 197577381
field sqrsum 2618361312139
field min 1
field max 19878
statistic Basic.rack[2].node[1].app 	"End-to-End Delay"
field count 19878
field mean 7.2206168002316e-006
field stddev 7.4396659800668e-006
field sum 0.143531420755
field sqrsum 2.1365501044869e-006
field min 4e-007
field max 3.9794652e-005
statistic Basic.rack[2].node[1].app 	hops
field count 19878
field mean 3.2482644129188
field stddev 0.83031967052281
field sum 64569
field sqrsum 223441
field min 2
field max 4
statistic Basic.rack[2].node[2].app 	throughput
field count 19990
field mean 9995.5
field stddev 5770.7602763125
field sum 199810045
field sqrsum 2662868469715
field min 1
field max 19990
statistic Basic.rack[2].node[2].app 	"End-to-End Delay"
field count 19990
field mean 7.1701771847927e-006
field stddev 7.4173251107837e-006
field sum 0.14333184192401
field sqrsum 2.1274437549693e-006
field min 4e-007
field max 3.3701773e-005
statistic Basic.rack[2].node[2].app 	hops
field count 19990
field mean 3.2445722861431
field stddev 0.83153147816657
field sum 64859
field sqrsum 224261
field min 2
field max 4
statistic Basic.rack[2].node[3].app 	throughput
field count 19867
field mean 9934
field stddev 5735.2532347462
field sum 197358778
field sqrsum 2614017014610
field min 1
field max 19867
statistic Basic.rack[2].node[3].app 	"End-to-End Delay"
field count 19867
field mean 7.1990687370516e-006
field stddev 7.4117428351885e-006
field sum 0.143023898599
field sqrsum 2.1209563672861e-006
field min 4e-007
field max 3.95949e-005
statistic Basic.rack[2].node[3].app 	hops
field count 19867
field mean 3.251723964363
field stddev 0.82673198645011
field sum 64602
field sqrsum 223646
field min 2
field max 4
statistic Basic.rack[2].node[4].app 	throughput
field count 20041
field mean 10021
field stddev 5785.4827081815
field sum 200830861
field sqrsum 2683301133821
field min 1
field max 20041
statistic Basic.rack[2].node[4].app 	"End-to-End Delay"
field count 20041
field mean 7.158974385011e-006
field stddev 7.415087403195e-006
field sum 0.14347300565
field sqrsum 2.1289893371772e-006
field min 4e-007
field max 3.3191305e-005
statistic Basic.rack[2].node[4].app 	hops
field count 20041
field mean 3.2513347637343
field stddev 0.82908177315651
field sum 65160
field sqrsum 225632
field min 2
field max 4
statistic Basic.rack[2].node[5].app 	throughput
field count 20058
field mean 10029.5
field stddev 5790.3901854711
field sum 201171711
field sqrsum 2690135176729
field min 1
field max 20058
statistic Basic.rack[2].node[5].app 	"End-to-End Delay"
field count 20058
field mean 7.4071755915847e-006
field stddev 7.5195802903675e-006
field sum 0.14857312801601
field sqrsum 2.2346120152726e-006
field min 4e-007
field max 3.4036322e-005
statistic Basic.rack[2].node[5].app 	hops
field count 20058
field mean 3.2547611925416
field stddev 0.82792207884859
field sum 65284
field sqrsum 226232
field min 2
field max 4
statistic Basic.rack[2].node[6].app 	throughput
field count 20210
field mean 10105.5
field stddev 5834.268805943
field sum 204232155
field sqrsum 2751755979085
field min 1
field max 20210
statistic Basic.rack[2].node[6].app 	"End-to-End Delay"
field count 20210
field mean 7.2623398597231e-006
field stddev 7.4649442519119e-006
field sum 0.146771888565
field sqrsum 2.1920617973665e-006
field min 4e-007
field max 3.7126979e-005
statistic Basic.rack[2].node[6].app 	hops
field count 20210
field mean 3.2525977238991
field stddev 0.83081959619398
field sum 65735
field sqrsum 227759
field min 2
field max 4
statistic Basic.rack[2].node[7].app 	throughput
field count 19703
field mean 9852
field stddev 5687.9105126575
field sum 194113956
field sqrsum 2549816221364
field min 1
field max 19703
statistic Basic.rack[2].node[7].app 	"End-to-End Delay"
field count 19703
field mean 7.2311550251233e-006
field stddev 7.4373996726312e-006
field sum 0.14247544746
field sqrsum 2.1200764813268e-006
field min 4e-007
field max 3.6435347e-005
statistic Basic.rack[2].node[7].app 	hops
field count 19703
field mean 3.2470689742679
field stddev 0.82965014932824
field sum 63977
field sqrsum 221299
field min 2
field max 4
statistic Basic.rack[2].node[8].app 	throughput
field count 19968
field mean 9984.5
field stddev 5764.4094233495
field sum 199370496
field sqrsum 2654086499584
field min 1
field max 19968
statistic Basic.rack[2].node[8].app 	"End-to-End Delay"
field count 19968
field mean 7.2156755759217e-006
field stddev 7.4511419807161e-006
field sum 0.14408260990001
field sqrsum 2.1482115614514e-006
field min 4e-007
field max 4.6729038e-005
statistic Basic.rack[2].node[8].app 	hops
field count 19968
field mean 3.2478465544872
field stddev 0.8287059269664
field sum 64853
field sqrsum 224345
field min 2
field max 4
statistic Basic.rack[2].node[9].app 	throughput
field count 19967
field mean 9984
field stddev 5764.1207482148
field sum 199350528
field sqrsum 2653687778560
field min 1
field max 19967
statistic Basic.rack[2].node[9].app 	"End-to-End Delay"
field count 19967
field mean 7.1726449452098e-006
field stddev 7.4227269196206e-006
field sum 0.143216201621
field sqrsum 2.1273031693469e-006
field min 4e-007
field max 4.4861676e-005
statistic Basic.rack[2].node[9].app 	hops
field count 19967
field mean 3.2526669003856
field stddev 0.82787675425883
field sum 64946
field sqrsum 224932
field min 2
field max 4
statistic Basic.rack[2].eps.queue[0] 	dropsum
field count 0
field mean nan
field stddev nan
field sum 0
field sqrsum 0
field min nan
field max nan
statistic Basic.rack[2].eps.queue[1] 	dropsum
field count 0
field mean nan
field stddev nan
field sum 0
field sqrsum 0
field min nan
field max nan
statistic Basic.rack[2].eps.queue[2] 	dropsum
field count 0
field mean nan
field stddev nan
field sum 0
field sqrsum 0
field min nan
field max nan
statistic Basic.rack[2].eps.queue[3] 	dropsum
field count 0
field mean nan
field stddev nan
field sum 0
field sqrsum 0
field min nan
field max nan
statistic Basic.rack[3].node[0].app 	throughput
field count 19950
field mean 9975.5
field stddev 5759.2132709251
field sum 199011225
field sqrsum 2646915629575
field min 1
field max 19950
statistic Basic.rack[3].node[0].app 	"End-to-End Delay"
field count 19950
field mean 7.2847946500755e-006
field stddev 7.4787422873539e-006
field sum 0.14533165326901
field sqrsum 2.1744904633375e-006
field min 4e-007
field max 3.3877498e-005
statistic Basic.rack[3].node[0].app 	hops
field count 19950
field mean 3.2615538847118
field stddev 0.82734882727164
field sum 65068
field sqrsum 225878
field min 2
field max 4
statistic Basic.rack[3].node[1].app 	throughput
field count 19917
field mean 9959
field stddev 5749.6869914805
field sum 198353403
field sqrsum 2633802602835
field min 1
field max 19917
statistic Basic.rack[3].node[1].app 	"End-to-End Delay"
field count 19917
field mean 7.2532435202091e-006
field stddev 7.47125052878e-006
field sum 0.14446285119201
field sqrsum 2.1595270835003e-006
field min 4e-007
field max 3.8283774e-005
statistic Basic.rack[3].node[1].app 	hops
field count 19917
field mean 3.2500376562735
field stddev 0.83177303297058
field sum 64731
field sqrsum 224157
field min 2
field max 4
statistic Basic.rack[3].node[2].app 	throughput
field count 20061
field mean 10031
field stddev 5791.2562108751
field sum 201231891
field sqrsum 2691342387531
field min 1
field max 20061
statistic Basic.rack[3].node[2].app 	"End-to-End Delay"
field count 20061
field mean 7.2066097447288e-006
field stddev 7.4153710030883e-006
field sum 0.144571798089
field sqrsum 2.1449263348168e-006
field min 4e-007
field max 4.1826723e-005
statistic Basic.rack[3].node[2].app 	hops
field count 20061
field mean 3.2484920990978
field stddev 0.82810390415193
field sum 65168
field sqrsum 225454
field min 2
field max 4
statistic Basic.rack[3].node[3].app 	throughput
field count 20052
field mean 10026.5
field stddev 5788.658134663
field sum 201051378
field sqrsum 2687721838230
field min 1
field max 20052
statistic Basic.rack[3].node[3].app 	"End-to-End Delay"
field count 20052
field mean 7.1730130313687e-006
field stddev 7.4261656849703e-006
field sum 0.14383325730501
field sqrsum 2.1374891093814e-006
field min 4e-007
field max 3.6471265e-005
statistic Basic.rack[3].node[3].app 	hops
field count 20052
field mean 3.2485537602234
field stddev 0.82970173573286
field sum 65140
field sqrsum 225414
field min 2
field max 4
statistic Basic.rack[3].node[4].app 	throughput
field count 19858
field mean 9929.5
field stddev 5732.655158534
field sum 197180011
field sqrsum 2610466165629
field min 1
field max 19858
statistic Basic.rack[3].node[4].app 	"End-to-End Delay"
field count 19858
field mean 7.2278839778429e-006
field stddev 7.4471274618767e-006
field sum 0.143531320032
field sqrsum 2.1386911388838e-006
field min 4e-007
field max 4.0430931e-005
statistic Basic.rack[3].node[4].app 	hops
field count 19858
field mean 3.2492698156914
field stddev 0.82953349554495
field sum 64524
field sqrsum 223320
field min 2
field max 4
statistic Basic.rack[3].node[5].app 	throughput
field count 20192
field mean 10096.5
field stddev 5829.0726535187
field sum 203868528
field sqrsum 2744410167760
field min 1
field max 20192
statistic Basic.rack[3].node[5].app 	"End-to-End Delay"
field count 20192
field mean 7.2061071359947e-006
field stddev 7.4020204064266e-006
field sum 0.14550571529001
field sqrsum 2.154792767287e-006
field min 4e-007
field max 4.2299268e-005
statistic Basic.rack[3].node[5].app 	hops
field count 20192
field mean 3.2465332805071
field stddev 0.82608761541084
field sum 65554
field sqrsum 226602
field min 2
field max 4
statistic Basic.rack[3].node[6].app 	throughput
field count 20097
field mean 10049
field stddev 5801.6485157238
field sum 201954753
field sqrsum 2705857098945
field min 1
field max 20097
statistic Basic.rack[3].node[6].app 	"End-to-End Delay"
field count 20097
field mean 7.2588936469128e-006
field stddev 7.4800800184453e-006
field sum 0.14588198562201
field sqrsum 2.1833451135974e-006
field min 4e-007
field max 4.6510091e-005
statistic Basic.rack[3].node[6].app 	hops
field count 20097
field mean 3.2427227944469
field stddev 0.83262969191345
field sum 65169
field sqrsum 225257
field min 2
field max 4
statistic Basic.rack[3].node[7].app 	throughput
field count 19880
field mean 9940.5
field stddev 5739.0060114971
field sum 197617140
field sqrsum 2619151701180
field min 1
field max 19880
statistic Basic.rack[3].node[7].app 	"End-to-End Delay"
field count 19880
field mean 7.2526972862679e-006
field stddev 7.4691746963193e-006
field sum 0.14418362205101
field sqrsum 2.1547411602084e-006
field min 4e-007
field max 3.740641e-005
statistic Basic.rack[3].node[7].app 	hops
field count 19880
field mean 3.2505030181087
field stddev 0.82981366725382
field sum 64620
field sqrsum 223736
field min 2
field max 4
statistic Basic.rack[3].node[8].app 	throughput
field count 20168
field mean 10084.5
field stddev 5822.1444502863
field sum 203384196
field sqrsum 2734636104684
field min 1
field max 20168
statistic Basic.rack[3].node[8].app 	"End-to-End Delay"
field count 20168
field mean 7.1742115697642e-006
field stddev 7.4261358903393e-006
field sum 0.144689498939
field sqrsum 2.150192594089e-006
field min 4e-007
field max 4.1628922e-005
statistic Basic.rack[3].node[8].app 	hops
field count 20168
field mean 3.2470249900833
field stddev 0.82887235425617
field sum 65486
field sqrsum 226490
field min 2
field max 4
statistic Basic.rack[3].node[9].app 	throughput
field count 19959
field mean 9980
field stddev 5761.8113471373
field sum 199190820
field sqrsum 2650499447860
field min 1
field max 19959
statistic Basic.rack[3].node[9].app 	"End-to-End Delay"
field count 19959
field mean 7.2315181316201e-006
field stddev 7.4504658760259e-006
field sum 0.14433387038901
field sqrsum 2.1516104395672e-006
field min 4e-007
field max 3.6589039e-005
statistic Basic.rack[3].node[9].app 	hops
field count 19959
field mean 3.2445012275164
field stddev 0.8305964546481
field sum 64757
field sqrsum 223873
field min 2
field max 4
statistic Basic.rack[3].eps.queue[0] 	dropsum
field count 0
field mean nan
field stddev nan
field sum 0
field sqrsum 0
field min nan
field max nan
statistic Basic.rack[3].eps.queue[1] 	dropsum
field count 0
field mean nan
field stddev nan
field sum 0
field sqrsum 0
field min nan
field max nan
statistic Basic.rack[3].eps.queue[2] 	dropsum
field count 0
field mean nan
field stddev nan
field sum 0
field sqrsum 0
field min nan
field max nan
statistic Basic.rack[3].eps.queue[3] 	dropsum
field count 0
field mean nan
field stddev nan
field sum 0
field sqrsum 0
field min nan
field max nan
statistic Basic.rack[4].node[0].app 	throughput
field count 19978
field mean 9989.5
field stddev 5767.2961746963
field sum 199570231
field sqrsum 2658075906689
field min 1
field max 19978
statistic Basic.rack[4].node[0].app 	"End-to-End Delay"
field count 19978
field mean 9.4143588090917e-006
field stddev 6.5109626391697e-006
field sum 0.18808006028803
field sqrsum 2.6175308315672e-006
field min 4e-007
field max 3.7707307e-005
statistic Basic.rack[4].node[0].app 	hops
field count 19978
field mean 3.0005506056662
field stddev 0.70307763657678
field sum 59945
field sqrsum 189743
field min 2
field max 4
statistic Basic.rack[4].node[1].app 	throughput
field count 19832
field mean 9916.5
field stddev 5725.1496050322
field sum 196664028
field sqrsum 2600226223540
field min 1
field max 19832
statistic Basic.rack[4].node[1].app 	"End-to-End Delay"
field count 19832
field mean 9.3884752480855e-006
field stddev 6.5652976883861e-006
field sum 0.18619224112003
field sqrsum 2.602839492282e-006
field min 4e-007
field max 3.9356891e-005
statistic Basic.rack[4].node[1].app 	hops
field count 19832
field mean 2.997327551432
field stddev 0.70922014258001
field sum 59443
field sqrsum 188145
field min 2
field max 4
statistic Basic.rack[4].node[2].app 	throughput
field count 19901
field mean 9951
field stddev 5745.0681893255
field sum 198034851
field sqrsum 2627460391451
field min 1
field max 19901
statistic Basic.rack[4].node[2].app 	"End-to-End Delay"
field count 19901
field mean 9.3636625302263e-006
field stddev 6.5388791886588e-006
field sum 0.18634624801403
field sqrsum 2.5957465069504e-006
field min 4e-007
field max 4.4119335e-005
statistic Basic.rack[4].node[2].app 	hops
field count 19901
field mean 2.9964323400834
field stddev 0.70791457822084
field sum 59632
field sqrsum 188656
field min 2
field max 4
statistic Basic.rack[4].node[3].app 	throughput
field count 20128
field mean 10064.5
field stddev 5810.597444899
field sum 202578256
field sqrsum 2718397617264
field min 1
field max 20128
statistic Basic.rack[4].node[3].app 	"End-to-End Delay"
field count 20128
field mean 9.3581097414067e-006
field stddev 6.5311217188916e-006
field sum 0.18836003287503
field sqrsum 2.6212221316443e-006
field min 4e-007
field max 4.0336842e-005
statistic Basic.rack[4].node[3].app 	hops
field count 20128
field mean 2.9956776629571
field stddev 0.70784852426026
field sum 60297
field sqrsum 190715
field min 2
field max 4
statistic Basic.rack[4].node[4].app 	throughput
field count 19794
field mean 9897.5
field stddev 5714.1799499141
field sum 195911115
field sqrsum 2585308377245
field min 1
field max 19794
statistic Basic.rack[4].node[4].app 	"End-to-End Delay"
field count 19794
field mean 9.442430682178e-006
field stddev 6.5527775921214e-006
field sum 0.18690347292303
field sqrsum 2.6147126196767e-006
field min 4e-007
field max 4.3922138e-005
statistic Basic.rack[4].node[4].app 	hops
field count 19794
field mean 3.0011619682732
field stddev 0.70605114818501
field sum 59405
field sqrsum 188151
field min 2
field max 4
statistic Basic.rack[4].node[5].app 	throughput
field count 19844
field mean 9922.5
field stddev 5728.6137066484
field sum 196902090
field sqrsum 2604949016670
field min 1
field max 19844
statistic Basic.rack[4].node[5].app 	"End-to-End Delay"
field count 19844
field mean 9.5010759224971e-006
field stddev 6.5995067674793e-006
field sum 0.18853935060603
field sqrsum 2.6555585781032e-006
field min 4e-007
field max 4.4020726e-005
statistic Basic.rack[4].node[5].app 	hops
field count 19844
field mean 3.0078613182826
field stddev 0.70942899879153
field sum 59688
field sqrsum 189520
field min 2
field max 4
statistic Basic.rack[4].node[6].app 	throughput
field count 19901
field mean 9951
field stddev 5745.0681893255
field sum 198034851
field sqrsum 2627460391451
field min 1
field max 19901
statistic Basic.rack[4].node[6].app 	"End-to-End Delay"
field count 19901
field mean 9.4104023505872e-006
field stddev 6.5459815707632e-006
field sum 0.18727641717904
field sqrsum 2.6150589434541e-006
field min 4e-007
field max 3.6987773e-005
statistic Basic.rack[4].node[6].app 	hops
field count 19901
field mean 2.9999497512688
field stddev 0.70735546669896
field sum 59702
field sqrsum 189060
field min 2
field max 4
statistic Basic.rack[4].node[7].app 	throughput
field count 19959
field mean 9980
field stddev 5761.8113471373
field sum 199190820
field sqrsum 2650499447860
field min 1
field max 19959
statistic Basic.rack[4].node[7].app 	"End-to-End Delay"
field count 19959
field mean 9.390312483042e-006
field stddev 6.5173013140741e-006
field sum 0.18742124684903
field sqrsum 2.6076644431529e-006
field min 4e-007
field max 4.097977e-005
statistic Basic.rack[4].node[7].app 	hops
field count 19959
field mean 2.9963926048399
field stddev 0.7046486541544
field sum 59805
field sqrsum 189109
field min 2
field max 4
statistic Basic.rack[4].node[8].app 	throughput
field count 19857
field mean 9929
field stddev 5732.3664833993
field sum 197160153
field sqrsum 2610071825465
field min 1
field max 19857
statistic Basic.rack[4].node[8].app 	"End-to-End Delay"
field count 19857
field mean 9.4359341220745e-006
field stddev 6.5369831932022e-006
field sum 0.18736934386203
field sqrsum 2.616494341048e-006
field min 4e-007
field max 4.2101698e-005
statistic Basic.rack[4].node[8].app 	hops
field count 19857
field mean 3.0042302462608
field stddev 0.70908561564878
field sum 59655
field sqrsum 189201
field min 2
field max 4
statistic Basic.rack[4].node[9].app 	throughput
field count 19889
field mean 9945
field stddev 5741.6040877093
field sum 197796105
field sqrsum 2622710420265
field min 1
field max 19889
statistic Basic.rack[4].node[9].app 	"End-to-End Delay"
field count 19889
field mean 9.3791651823136e-006
field stddev 6.5160186344105e-006
field sum 0.18654221631104
field sqrsum 2.5940248852653e-006
field min 4e-007
field max 3.8926251e-005
statistic Basic.rack[4].node[9].app 	hops
field count 19889
field mean 2.9979888380512
field stddev 0.706961688295
field sum 59627
field sqrsum 188701
field min 2
field max 4
statistic Basic.rack[4].eps.queue[0] 	dropsum
field count 0
field mean nan
field stddev nan
field sum 0
field sqrsum 0
field min nan
field max nan
statistic Basic.rack[4].eps.queue[1] 	dropsum
field count 0
field mean nan
field stddev nan
field sum 0
field sqrsum 0
field min nan
field max nan
statistic Basic.rack[4].eps.queue[2] 	dropsum
field count 0
field mean nan
field stddev nan
field sum 0
field sqrsum 0
field min nan
field max nan
statistic Basic.rack[4].eps.queue[3] 	dropsum
field count 0
field mean nan
field stddev nan
field sum 0
field sqrsum 0
field min nan
field max nan
statistic Basic.rack[5].node[0].app 	throughput
field count 20197
field mean 10099
field stddev 5830.5160291922
field sum 203969503
field sqrsum 2746449357895
field min 1
field max 20197
statistic Basic.rack[5].node[0].app 	"End-to-End Delay"
field count 20197
field mean 9.4106230411961e-006
field stddev 6.5291263252164e-006
field sum 0.19006635356304
field sqrsum 2.6495879977609e-006
field min 4e-007
field max 3.9693518e-005
statistic Basic.rack[5].node[0].app 	hops
field count 20197
field mean 2.9997029261772
field stddev 0.70633602989232
field sum 60585
field sqrsum 191813
field min 2
field max 4
statistic Basic.rack[5].node[1].app 	throughput
field count 20124
field mean 10062.5
field stddev 5809.4427443603
field sum 202497750
field sqrsum 2716777313250
field min 1
field max 20124
statistic Basic.rack[5].node[1].app 	"End-to-End Delay"
field count 20124
field mean 9.4641478247882e-006
field stddev 6.4916504958214e-006
field sum 0.19045651082604
field sqrsum 2.6505225035666e-006
field min 4e-007
field max 3.6023326e-005
statistic Basic.rack[5].node[1].app 	hops
field count 20124
field mean 3.0055654939376
field stddev 0.70025221262914
field sum 60484
field sqrsum 191656
field min 2
field max 4
statistic Basic.rack[5].node[2].app 	throughput
field count 20044
field mean 10022.5
field stddev 5786.3487335855
field sum 200890990
field sqrsum 2684506299370
field min 1
field max 20044
statistic Basic.rack[5].node[2].app 	"End-to-End Delay"
field count 20044
field mean 9.3810524503111e-006
field stddev 6.5179467250837e-006
field sum 0.18803381531404
field sqrsum 2.6154544701826e-006
field min 4e-007
field max 4.0511541e-005
statistic Basic.rack[5].node[2].app 	hops
field count 20044
field mean 2.9961085611654
field stddev 0.70421488084389
field sum 60054
field sqrsum 189868
field min 2
field max 4
statistic Basic.rack[5].node[3].app 	throughput
field count 19988
field mean 9994.5
field stddev 5770.1829260432
field sum 199770066
field sqrsum 2662069309494
field min 1
field max 19988
statistic Basic.rack[5].node[3].app 	"End-to-End Delay"
field count 19988
field mean 9.4197624578765e-006
field stddev 6.5399048898633e-006
field sum 0.18828221200804
field sqrsum 2.6284248169008e-006
field min 4e-007
field max 3.6478812e-005
statistic Basic.rack[5].node[3].app 	hops
field count 19988
field mean 3.0003001801081
field stddev 0.70641650301022
field sum 59970
field sqrsum 189902
field min 2
field max 4
statistic Basic.rack[5].node[4].app 	throughput
field count 20022
field mean 10011.5
field stddev 5779.9978806224
field sum 200450253
field sqrsum 2675676793795
field min 1
field max 20022
statistic Basic.rack[5].node[4].app 	"End-to-End Delay"
field count 20022
field mean 9.4858988926698e-006
field stddev 6.5668267140617e-006
field sum 0.18992666762903
field sqrsum 2.6649950154759e-006
field min 4e-007
field max 3.4794894e-005
statistic Basic.rack[5].node[4].app 	hops
field count 20022
field mean 3.0075916491859
field stddev 0.71050140788253
field sum 60218
field sqrsum 191218
field min 2
field max 4
statistic Basic.rack[5].node[5].app 	throughput
field count 20017
field mean 10009
field stddev 5778.554504949
field sum 200350153
field sqrsum 2673672791785
field min 1
field max 20017
statistic Basic.rack[5].node[5].app 	"End-to-End Delay"
field count 20017
field mean 9.4778309206192e-006
field stddev 6.5844803233769e-006
field sum 0.18971774153803
field sqrsum 2.665913985616e-006
field min 4e-007
field max 4.0386093e-005
statistic Basic.rack[5].node[5].app 	hops
field count 20017
field mean 3.006894139981
field stddev 0.71179148122462
field sum 60189
field sqrsum 191123
field min 2
field max 4
statistic Basic.rack[5].node[6].app 	throughput
field count 19972
field mean 9986.5
field stddev 5765.5641238882
field sum 199450378
field sqrsum 2655681783070
field min 1
field max 19972
statistic Basic.rack[5].node[6].app 	"End-to-End Delay"
field count 19972
field mean 9.4457443367231e-006
field stddev 6.5252569426693e-006
field sum 0.18865040589303
field sqrsum 2.6322882760748e-006
field min 4e-007
field max 4.4303131e-005
statistic Basic.rack[5].node[6].app 	hops
field count 19972
field mean 3.0019026637292
field stddev 0.70492333942414
field sum 59954
field sqrsum 189900
field min 2
field max 4
statistic Basic.rack[5].node[7].app 	throughput
field count 19951
field mean 9976
field stddev 5759.5019460598
field sum 199031176
field sqrsum 2647313671976
field min 1
field max 19951
statistic Basic.rack[5].node[7].app 	"End-to-End Delay"
field count 19951
field mean 9.3997585582193e-006
field stddev 6.5392000004112e-006
field sum 0.18753458299503
field sqrsum 2.6158644775449e-006
field min 4e-007
field max 4.0895449e-005
statistic Basic.rack[5].node[7].app 	hops
field count 19951
field mean 2.9997493859957
field stddev 0.70788607422501
field sum 59848
field sqrsum 189526
field min 2
field max 4
statistic Basic.rack[5].node[8].app 	throughput
field count 19965
field mean 9983
field stddev 5763.5433979454
field sum 199310595
field sqrsum 2652890456315
field min 1
field max 19965
statistic Basic.rack[5].node[8].app 	"End-to-End Delay"
field count 19965
field mean 9.4307434434278e-006
field stddev 6.5428471762905e-006
field sum 0.18828479284804
field sqrsum 2.6303014405244e-006
field min 4e-007
field max 4.0107796e-005
statistic Basic.rack[5].node[8].app 	hops
field count 19965
field mean 3.0018532431756
field stddev 0.70706893239302
field sum 59932
field sqrsum 189888
field min 2
field max 4
statistic Basic.rack[5].node[9].app 	throughput
field count 20384
field mean 10192.5
field stddev 5884.4982793778
field sum 207763920
field sqrsum 2823442418160
field min 1
field max 20384
statistic Basic.rack[5].node[9].app 	"End-to-End Delay"
field count 20384
field mean 9.4263826576255e-006
field stddev 6.5434237340418e-006
field sum 0.19214738409304
field sqrsum 2.6839813313517e-006
field min 4e-007
field max 4.1527147e-005
statistic Basic.rack[5].node[9].app 	hops
field count 20384
field mean 3.001079277865
field stddev 0.70719267977766
field sum 61174
field sqrsum 193782
field min 2
field max 4
statistic Basic.rack[5].eps.queue[0] 	dropsum
field count 0
field mean nan
field stddev nan
field sum 0
field sqrsum 0
field min nan
field max nan
statistic Basic.rack[5].eps.queue[1] 	dropsum
field count 0
field mean nan
field stddev nan
field sum 0
field sqrsum 0
field min nan
field max nan
statistic Basic.rack[5].eps.queue[2] 	dropsum
field count 0
field mean nan
field stddev nan
field sum 0
field sqrsum 0
field min nan
field max nan
statistic Basic.rack[5].eps.queue[3] 	dropsum
field count 0
field mean nan
field stddev nan
field sum 0
field sqrsum 0
field min nan
field max nan
statistic Basic.rack[6].node[0].app 	throughput
field count 19994
field mean 9997.5
field stddev 5771.9149768513
field sum 199890015
field sqrsum 2664467269945
field min 1
field max 19994
statistic Basic.rack[6].node[0].app 	"End-to-End Delay"
field count 19994
field mean 7.3007889008204e-006
field stddev 7.4759296822896e-006
field sum 0.145971973283
field sqrsum 2.1831098279939e-006
field min 4e-007
field max 4.1974185e-005
statistic Basic.rack[6].node[0].app 	hops
field count 19994
field mean 3.2527758327498
field stddev 0.82841036894338
field sum 65036
field sqrsum 225268
field min 2
field max 4
statistic Basic.rack[6].node[1].app 	throughput
field count 19968
field mean 9984.5
field stddev 5764.4094233495
field sum 199370496
field sqrsum 2654086499584
field min 1
field max 19968
statistic Basic.rack[6].node[1].app 	"End-to-End Delay"
field count 19968
field mean 7.2127542099361e-006
field stddev 7.432699292902e-006
field sum 0.144024276064
field sqrsum 2.1418889934681e-006
field min 4e-007
field max 4.1856046e-005
statistic Basic.rack[6].node[1].app 	hops
field count 19968
field mean 3.2502003205128
field stddev 0.8303237512341
field sum 64900
field sqrsum 224704
field min 2
field max 4
statistic Basic.rack[6].node[2].app 	throughput
field count 20055
field mean 10028
field stddev 5789.524160067
field sum 201111540
field sqrsum 2688928326980
field min 1
field max 20055
statistic Basic.rack[6].node[2].app 	"End-to-End Delay"
field count 20055
field mean 7.2699246587387e-006
field stddev 7.4550056721433e-006
field sum 0.145798339031
field sqrsum 2.1744862954753e-006
field min 4e-007
field max 3.9843236e-005
statistic Basic.rack[6].node[2].app 	hops
field count 20055
field mean 3.2535028671154
field stddev 0.82801475133147
field sum 65249
field sqrsum 226037
field min 2
field max 4
statistic Basic.rack[6].node[3].app 	throughput
field count 20088
field mean 10044.5
field stddev 5799.0504395116
field sum 201773916
field sqrsum 2702223541044
field min 1
field max 20088
statistic Basic.rack[6].node[3].app 	"End-to-End Delay"
field count 20088
field mean 7.2484147363603e-006
field stddev 7.4494378211903e-006
field sum 0.145606155224
field sqrsum 2.1701242670411e-006
field min 4e-007
field max 4.396728e-005
statistic Basic.rack[6].node[3].app 	hops
field count 20088
field mean 3.2476602947033
field stddev 0.82684371852599
field sum 65239
field sqrsum 225607
field min 2
field max 4
statistic Basic.rack[6].node[4].app 	throughput
field count 19737
field mean 9869
field stddev 5697.7254672369
field sum 194784453
field sqrsum 2563038760725
field min 1
field max 19737
statistic Basic.rack[6].node[4].app 	"End-to-End Delay"
field count 19737
field mean 7.2341811386738e-006
field stddev 7.4400235017879e-006
field sum 0.14278103313401
field sqrsum 2.1253694082788e-006
field min 4e-007
field max 3.8143148e-005
statistic Basic.rack[6].node[4].app 	hops
field count 19737
field mean 3.2530779753762
field stddev 0.82880094163868
field sum 64206
field sqrsum 222424
field min 2
field max 4
statistic Basic.rack[6].node[5].app 	throughput
field count 19980
field mean 9990.5
field stddev 5767.8735249657
field sum 199610190
field sqrsum 2658874267530
field min 1
field max 19980
statistic Basic.rack[6].node[5].app 	"End-to-End Delay"
field count 19980
field mean 7.219523223774e-006
field stddev 7.4544305705534e-006
field sum 0.144246074011
field sqrsum 2.1515916446469e-006
field min 4e-007
field max 3.8340265e-005
statistic Basic.rack[6].node[5].app 	hops
field count 19980
field mean 3.2522522522523
field stddev 0.83117858078589
field sum 64980
field sqrsum 225134
field min 2
field max 4
statistic Basic.rack[6].node[6].app 	throughput
field count 20038
field mean 10019.5
field stddev 5784.6166827774
field sum 200770741
field sqrsum 2682096329019
field min 1
field max 20038
statistic Basic.rack[6].node[6].app 	"End-to-End Delay"
field count 20038
field mean 7.1302562379981e-006
field stddev 7.4431072326635e-006
field sum 0.14287607449701
field sqrsum 2.1287897212567e-006
field min 4e-007
field max 4.5296783e-005
statistic Basic.rack[6].node[6].app 	hops
field count 20038
field mean 3.2393951492165
field stddev 0.83297506305257
field sum 64911
field sqrsum 224175
field min 2
field max 4
statistic Basic.rack[6].node[7].app 	throughput
field count 19895
field mean 9948
field stddev 5743.3361385174
field sum 197915460
field sqrsum 2625084689620
field min 1
field max 19895
statistic Basic.rack[6].node[7].app 	"End-to-End Delay"
field count 19895
field mean 7.2300609496359e-006
field stddev 7.4371442302566e-006
field sum 0.14384206259301
field sqrsum 2.1403461875856e-006
field min 4e-007
field max 3.8999802e-005
statistic Basic.rack[6].node[7].app 	hops
field count 19895
field mean 3.2376476501634
field stddev 0.83270348232465
field sum 64413
field sqrsum 222341
field min 2
field max 4
statistic Basic.rack[6].node[8].app 	throughput
field count 20124
field mean 10062.5
field stddev 5809.4427443603
field sum 202497750
field sqrsum 2716777313250
field min 1
field max 20124
statistic Basic.rack[6].node[8].app 	"End-to-End Delay"
field count 20124
field mean 7.2314698300043e-006
field stddev 7.4180592426562e-006
field sum 0.14552609885901
field sqrsum 2.1596880470884e-006
field min 4e-007
field max 4.1913775e-005
statistic Basic.rack[6].node[8].app 	hops
field count 20124
field mean 3.2566090240509
field stddev 0.82550143331142
field sum 65536
field sqrsum 227138
field min 2
field max 4
statistic Basic.rack[6].node[9].app 	throughput
field count 19916
field mean 9958.5
field stddev 5749.3983163458
field sum 198333486
field sqrsum 2633405915946
field min 1
field max 19916
statistic Basic.rack[6].node[9].app 	"End-to-End Delay"
field count 19916
field mean 7.1880628535351e-006
field stddev 7.4439423617255e-006
field sum 0.14315745979101
field sqrsum 2.1325603330038e-006
field min 4e-007
field max 3.9666381e-005
statistic Basic.rack[6].node[9].app 	hops
field count 19916
field mean 3.246585659771
field stddev 0.83098475788158
field sum 64659
field sqrsum 223673
field min 2
field max 4
statistic Basic.rack[6].eps.queue[0] 	dropsum
field count 0
field mean nan
field stddev nan
field sum 0
field sqrsum 0
field min nan
field max nan
statistic Basic.rack[6].eps.queue[1] 	dropsum
field count 0
field mean nan
field stddev nan
field sum 0
field sqrsum 0
field min nan
field max nan
statistic Basic.rack[6].eps.queue[2] 	dropsum
field count 0
field mean nan
field stddev nan
field sum 0
field sqrsum 0
field min nan
field max nan
statistic Basic.rack[6].eps.queue[3] 	dropsum
field count 0
field mean nan
field stddev nan
field sum 0
field sqrsum 0
field min nan
field max nan
statistic Basic.rack[7].node[0].app 	throughput
field count 20091
field mean 10046
field stddev 5799.9164649157
field sum 201834186
field sqrsum 2703434365346
field min 1
field max 20091
statistic Basic.rack[7].node[0].app 	"End-to-End Delay"
field count 20091
field mean 7.2535789443037e-006
field stddev 7.446388726073e-006
field sum 0.14573165457001
field sqrsum 2.1710405457587e-006
field min 4e-007
field max 3.75934e-005
statistic Basic.rack[7].node[0].app 	hops
field count 20091
field mean 3.241849584391
field stddev 0.83083473379202
field sum 65132
field sqrsum 225016
field min 2
field max 4
statistic Basic.rack[7].node[1].app 	throughput
field count 19880
field mean 9940.5
field stddev 5739.0060114971
field sum 197617140
field sqrsum 2619151701180
field min 1
field max 19880
statistic Basic.rack[7].node[1].app 	"End-to-End Delay"
field count 19880
field mean 7.080984065141e-006
field stddev 7.3743814571922e-006
field sum 0.140769963215
field sqrsum 2.0778397421725e-006
field min 4e-007
field max 3.8032043e-005
statistic Basic.rack[7].node[1].app 	hops
field count 19880
field mean 3.2340040241449
field stddev 0.83135560044845
field sum 64292
field sqrsum 221660
field min 2
field max 4
statistic Basic.rack[7].node[2].app 	throughput
field count 19836
field mean 9918.5
field stddev 5726.3043055709
field sum 196743366
field sqrsum 2601799853106
field min 1
field max 19836
statistic Basic.rack[7].node[2].app 	"End-to-End Delay"
field count 19836
field mean 7.1915035537913e-006
field stddev 7.4395568829895e-006
field sum 0.142650664493
field sqrsum 2.1236806368653e-006
field min 4e-007
field max 3.6391901e-005
statistic Basic.rack[7].node[2].app 	hops
field count 19836
field mean 3.2481851179673
field stddev 0.8310578528231
field sum 64431
field sqrsum 222983
field min 2
field max 4
statistic Basic.rack[7].node[3].app 	throughput
field count 20017
field mean 10009
field stddev 5778.554504949
field sum 200350153
field sqrsum 2673672791785
field min 1
field max 20017
statistic Basic.rack[7].node[3].app 	"End-to-End Delay"
field count 20017
field mean 7.3820431882902e-006
field stddev 7.4824231067767e-006
field sum 0.14776635850001
field sqrsum 2.2114465376887e-006
field min 4e-007
field max 3.4647795e-005
statistic Basic.rack[7].node[3].app 	hops
field count 20017
field mean 3.2556327121946
field stddev 0.82740479309205
field sum 65168
field sqrsum 225866
field min 2
field max 4
statistic Basic.rack[7].node[4].app 	throughput
field count 20169
field mean 10085
field stddev 5822.433125421
field sum 203404365
field sqrsum 2735042893245
field min 1
field max 20169
statistic Basic.rack[7].node[4].app 	"End-to-End Delay"
field count 20169
field mean 7.2540189066392e-006
field stddev 7.4293703492115e-006
field sum 0.14630630732801
field sqrsum 2.1744924465888e-006
field min 4e-007
field max 3.7450766e-005
statistic Basic.rack[7].node[4].app 	hops
field count 20169
field mean 3.2532103723536
field stddev 0.82737088043971
field sum 65614
field sqrsum 227262
field min 2
field max 4
statistic Basic.rack[7].node[5].app 	throughput
field count 20047
field mean 10024
field stddev 5787.2147589896
field sum 200951128
field sqrsum 2685711825720
field min 1
field max 20047
statistic Basic.rack[7].node[5].app 	"End-to-End Delay"
field count 20047
field mean 7.2679324807704e-006
field stddev 7.4828991780574e-006
field sum 0.145700242442
field sqrsum 2.1813908405648e-006
field min 4e-007
field max 3.6107681e-005
statistic Basic.rack[7].node[5].app 	hops
field count 20047
field mean 3.241981343842
field stddev 0.83465868370196
field sum 64992
field sqrsum 224668
field min 2
field max 4
statistic Basic.rack[7].node[6].app 	throughput
field count 19984
field mean 9992.5
field stddev 5769.0282255044
field sum 199690120
field sqrsum 2660471468760
field min 1
field max 19984
statistic Basic.rack[7].node[6].app 	"End-to-End Delay"
field count 19984
field mean 7.1527970551443e-006
field stddev 7.4473791799427e-006
field sum 0.14294149635
field sqrsum 2.1307577683841e-006
field min 4e-007
field max 3.9158819e-005
statistic Basic.rack[7].node[6].app 	hops
field count 19984
field mean 3.2379903923139
field stddev 0.83474436993995
field sum 64708
field sqrsum 223448
field min 2
field max 4
statistic Basic.rack[7].node[7].app 	throughput
field count 20189
field mean 10095
field stddev 5828.2066281147
field sum 203807955
field sqrsum 2743187138315
field min 1
field max 20189
statistic Basic.rack[7].node[7].app 	"End-to-End Delay"
field count 20189
field mean 7.2500283296848e-006
field stddev 7.4375605586754e-006
field sum 0.14637082194801
field sqrsum 2.1779384007696e-006
field min 4e-007
field max 3.8261146e-005
statistic Basic.rack[7].node[7].app 	hops
field count 20189
field mean 3.2469661696964
field stddev 0.8275828275957
field sum 65553
field sqrsum 226675
field min 2
field max 4
statistic Basic.rack[7].node[8].app 	throughput
field count 19972
field mean 9986.5
field stddev 5765.5641238882
field sum 199450378
field sqrsum 2655681783070
field min 1
field max 19972
statistic Basic.rack[7].node[8].app 	"End-to-End Delay"
field count 19972
field mean 7.17393712838e-006
field stddev 7.4368618484307e-006
field sum 0.14327787232801
field sqrsum 2.1324008305116e-006
field min 4e-007
field max 3.8027631e-005
statistic Basic.rack[7].node[8].app 	hops
field count 19972
field mean 3.2492990186261
field stddev 0.83077540984092
field sum 64895
field sqrsum 224647
field min 2
field max 4
statistic Basic.rack[7].node[9].app 	throughput
field count 19803
field mean 9902
field stddev 5716.7780261263
field sum 196089306
field sqrsum 2588836380914
field min 1
field max 19803
statistic Basic.rack[7].node[9].app 	"End-to-End Delay"
field count 19803
field mean 7.3424582154726e-006
field stddev 7.4648292923093e-006
field sum 0.145402700041
field sqrsum 2.1710534888144e-006
field min 4e-007
field max 3.7783519e-005
statistic Basic.rack[7].node[9].app 	hops
field count 19803
field mean 3.2562238044741
field stddev 0.8270231538752
field sum 64483
field sqrsum 223515
field min 2
field max 4
statistic Basic.rack[7].eps.queue[0] 	dropsum
field count 0
field mean nan
field stddev nan
field sum 0
field sqrsum 0
field min nan
field max nan
statistic Basic.rack[7].eps.queue[1] 	dropsum
field count 0
field mean nan
field stddev nan
field sum 0
field sqrsum 0
field min nan
field max nan
statistic Basic.rack[7].eps.queue[2] 	dropsum
field count 0
field mean nan
field stddev nan
field sum 0
field sqrsum 0
field min nan
field max nan
statistic Basic.rack[7].eps.queue[3] 	dropsum
field count 0
field mean nan
field stddev nan
field sum 0
field sqrsum 0
field min nan
field max nan
statistic Basic.rack[8].node[0].app 	throughput
field count 19951
field mean 9976
field stddev 5759.5019460598
field sum 199031176
field sqrsum 2647313671976
field min 1
field max 19951
statistic Basic.rack[8].node[0].app 	"End-to-End Delay"
field count 19951
field mean 9.3716678485308e-006
field stddev 6.5563861506802e-006
field sum 0.18697414524604
field sqrsum 2.6098342626776e-006
field min 4e-007
field max 4.0902755e-005
statistic Basic.rack[8].node[0].app 	hops
field count 19951
field mean 2.9947872287103
field stddev 0.70705211996015
field sum 59749
field sqrsum 188909
field min 2
field max 4
statistic Basic.rack[8].node[1].app 	throughput
field count 19699
field mean 9850
field stddev 5686.7558121188
field sum 194035150
field sqrsum 2548263624950
field min 1
field max 19699
statistic Basic.rack[8].node[1].app 	"End-to-End Delay"
field count 19699
field mean 9.3217705536846e-006
field stddev 6.5567707531847e-006
field sum 0.18362955813703
field sqrsum 2.5585941067259e-006
field min 4e-007
field max 3.8559561e-005
statistic Basic.rack[8].node[1].app 	hops
field count 19699
field mean 2.9889334483984
field stddev 0.70856226822748
field sum 58879
field sqrsum 185875
field min 2
field max 4
statistic Basic.rack[8].node[2].app 	throughput
field count 20022
field mean 10011.5
field stddev 5779.9978806224
field sum 200450253
field sqrsum 2675676793795
field min 1
field max 20022
statistic Basic.rack[8].node[2].app 	"End-to-End Delay"
field count 20022
field mean 9.3918795988929e-006
field stddev 6.5992435581805e-006
field sum 0.18804421332903
field sqrsum 2.6380034719849e-006
field min 4e-007
field max 4.4034424e-005
statistic Basic.rack[8].node[2].app 	hops
field count 20022
field mean 2.9953551093797
field stddev 0.7107025033781
field sum 59973
field sqrsum 189753
field min 2
field max 4
statistic Basic.rack[8].node[3].app 	throughput
field count 20078
field mean 10039.5
field stddev 5796.1636881648
field sum 201573081
field sqrsum 2698190071239
field min 1
field max 20078
statistic Basic.rack[8].node[3].app 	"End-to-End Delay"
field count 20078
field mean 9.5222603072534e-006
field stddev 6.5809034239495e-006
field sum 0.19118794244903
field sqrsum 2.6900418914353e-006
field min 4e-007
field max 3.6142649e-005
statistic Basic.rack[8].node[3].app 	hops
field count 20078
field mean 3.0102101802968
field stddev 0.70733239502465
field sum 60439
field sqrsum 191979
field min 2
field max 4
statistic Basic.rack[8].node[4].app 	throughput
field count 20005
field mean 10003
field stddev 5775.0904033328
field sum 200110015
field sqrsum 2668867270055
field min 1
field max 20005
statistic Basic.rack[8].node[4].app 	"End-to-End Delay"
field count 20005
field mean 9.4334310006514e-006
field stddev 6.5300804120379e-006
field sum 0.18871578716803
field sqrsum 2.6332469285376e-006
field min 4e-007
field max 3.5492472e-005
statistic Basic.rack[8].node[4].app 	hops
field count 20005
field mean 3.0014496375906
field stddev 0.70721133224221
field sum 60044
field sqrsum 190224
field min 2
field max 4
statistic Basic.rack[8].node[5].app 	throughput
field count 19971
field mean 9986
field stddev 5765.2754487535
field sum 199430406
field sqrsum 2655282902286
field min 1
field max 19971
statistic Basic.rack[8].node[5].app 	"End-to-End Delay"
field count 19971
field mean 9.451784007112e-006
field stddev 6.6016258916978e-006
field sum 0.18876157840603
field sqrsum 2.6544555122817e-006
field min 4e-007
field max 4.016697e-005
statistic Basic.rack[8].node[5].app 	hops
field count 19971
field mean 3.0017024685794
field stddev 0.70919075931872
field sum 59947
field sqrsum 189987
field min 2
field max 4
statistic Basic.rack[8].node[6].app 	throughput
field count 20116
field mean 10058.5
field stddev 5807.1333432828
field sum 202336786
field sqrsum 2713538637046
field min 1
field max 20116
statistic Basic.rack[8].node[6].app 	"End-to-End Delay"
field count 20116
field mean 9.4617710487192e-006
field stddev 6.5843553141507e-006
field sum 0.19033298641604
field sqrsum 2.672947518061e-006
field min 4e-007
field max 3.8158656e-005
statistic Basic.rack[8].node[6].app 	hops
field count 20116
field mean 3.0032312586995
field stddev 0.7074332779938
field sum 60413
field sqrsum 191501
field min 2
field max 4
statistic Basic.rack[8].node[7].app 	throughput
field count 19823
field mean 9912
field stddev 5722.55152882
field sum 196485576
field sqrsum 2596687877224
field min 1
field max 19823
statistic Basic.rack[8].node[7].app 	"End-to-End Delay"
field count 19823
field mean 9.3411801255125e-006
field stddev 6.5653975272008e-006
field sum 0.18517021362803
field sqrsum 2.5841246220277e-006
field min 4e-007
field max 3.9819414e-005
statistic Basic.rack[8].node[7].app 	hops
field count 19823
field mean 2.9921808000807
field stddev 0.70720623089198
field sum 59314
field sqrsum 187392
field min 2
field max 4
statistic Basic.rack[8].node[8].app 	throughput
field count 20039
field mean 10020
field stddev 5784.9053579121
field sum 200790780
field sqrsum 2682497890540
field min 1
field max 20039
statistic Basic.rack[8].node[8].app 	"End-to-End Delay"
field count 20039
field mean 9.3811256544256e-006
field stddev 6.5218024071539e-006
field sum 0.18798837698903
field sqrsum 2.6158370073171e-006
field min 4e-007
field max 3.8207479e-005
statistic Basic.rack[8].node[8].app 	hops
field count 20039
field mean 2.997754378961
field stddev 0.70653837408308
field sum 60072
field sqrsum 190084
field min 2
field max 4
statistic Basic.rack[8].node[9].app 	throughput
field count 20304
field mean 10152.5
field stddev 5861.4042686032
field sum 206136360
field sqrsum 2790330481080
field min 1
field max 20304
statistic Basic.rack[8].node[9].app 	"End-to-End Delay"
field count 20304
field mean 9.4070814548383e-006
field stddev 6.5036734742065e-006
field sum 0.19100138185904
field sqrsum 2.6555371542203e-006
field min 4e-007
field max 3.9911567e-005
statistic Basic.rack[8].node[9].app 	hops
field count 20304
field mean 2.9978821907013
field stddev 0.70142125101375
field sum 60869
field sqrsum 192467
field min 2
field max 4
statistic Basic.rack[8].eps.queue[0] 	dropsum
field count 0
field mean nan
field stddev nan
field sum 0
field sqrsum 0
field min nan
field max nan
statistic Basic.rack[8].eps.queue[1] 	dropsum
field count 0
field mean nan
field stddev nan
field sum 0
field sqrsum 0
field min nan
field max nan
statistic Basic.rack[8].eps.queue[2] 	dropsum
field count 0
field mean nan
field stddev nan
field sum 0
field sqrsum 0
field min nan
field max nan
statistic Basic.rack[8].eps.queue[3] 	dropsum
field count 0
field mean nan
field stddev nan
field sum 0
field sqrsum 0
field min nan
field max nan
statistic Basic.rack[9].node[0].app 	throughput
field count 20055
field mean 10028
field stddev 5789.524160067
field sum 201111540
field sqrsum 2688928326980
field min 1
field max 20055
statistic Basic.rack[9].node[0].app 	"End-to-End Delay"
field count 20055
field mean 9.3760125197225e-006
field stddev 6.5212055940628e-006
field sum 0.18803593108303
field sqrsum 2.6158461026025e-006
field min 4e-007
field max 3.7443912e-005
statistic Basic.rack[9].node[0].app 	hops
field count 20055
field mean 2.9968087758664
field stddev 0.70551107306857
field sum 60101
field sqrsum 190093
field min 2
field max 4
statistic Basic.rack[9].node[1].app 	throughput
field count 20028
field mean 10014.5
field stddev 5781.7299314306
field sum 200570406
field sqrsum 2678082917714
field min 1
field max 20028
statistic Basic.rack[9].node[1].app 	"End-to-End Delay"
field count 20028
field mean 9.5386216025582e-006
field stddev 6.5481128784667e-006
field sum 0.19103951345604
field sqrsum 2.6809669754981e-006
field min 4e-007
field max 4.4319179e-005
statistic Basic.rack[9].node[1].app 	hops
field count 20028
field mean 3.0125324545636
field stddev 0.70535173088217
field sum 60335
field sqrsum 191725
field min 2
field max 4
statistic Basic.rack[9].node[2].app 	throughput
field count 20227
field mean 10114
field stddev 5839.1762832327
field sum 204575878
field sqrsum 2758705714830
field min 1
field max 20227
statistic Basic.rack[9].node[2].app 	"End-to-End Delay"
field count 20227
field mean 9.4211785003233e-006
field stddev 6.542232840607e-006
field sum 0.19056217752604
field sqrsum 2.6610094838796e-006
field min 4e-007
field max 4.2145009e-005
statistic Basic.rack[9].node[2].app 	hops
field count 20227
field mean 2.9996539279181
field stddev 0.70430432000329
field sum 60674
field sqrsum 192034
field min 2
field max 4
statistic Basic.rack[9].node[3].app 	throughput
field count 20046
field mean 10023.5
field stddev 5786.9260838549
field sum 200931081
field sqrsum 2685309943511
field min 1
field max 20046
statistic Basic.rack[9].node[3].app 	"End-to-End Delay"
field count 20046
field mean 9.4416168191177e-006
field stddev 6.5642166058745e-006
field sum 0.18926665075603
field sqrsum 2.6507009883372e-006
field min 4e-007
field max 3.9361501e-005
statistic Basic.rack[9].node[3].app 	hops
field count 20046
field mean 3.0030430010975
field stddev 0.70916089373776
field sum 60199
field sqrsum 190861
field min 2
field max 4
statistic Basic.rack[9].node[4].app 	throughput
field count 20034
field mean 10017.5
field stddev 5783.4619822387
field sum 200690595
field sqrsum 2680490483685
field min 1
field max 20034
statistic Basic.rack[9].node[4].app 	"End-to-End Delay"
field count 20034
field mean 9.462409992714e-006
field stddev 6.5129345423884e-006
field sum 0.18956992179403
field sqrsum 2.6435544538103e-006
field min 4e-007
field max 3.6222309e-005
statistic Basic.rack[9].node[4].app 	hops
field count 20034
field mean 3.0062893081761
field stddev 0.70571850878801
field sum 60228
field sqrsum 191040
field min 2
field max 4
statistic Basic.rack[9].node[5].app 	throughput
field count 20081
field mean 10041
field stddev 5797.0297135688
field sum 201633321
field sqrsum 2699399690441
field min 1
field max 20081
statistic Basic.rack[9].node[5].app 	"End-to-End Delay"
field count 20081
field mean 9.4149580488041e-006
field stddev 6.5896754637019e-006
field sum 0.18906177257804
field sqrsum 2.6519590176104e-006
field min 4e-007
field max 4.0857738e-005
statistic Basic.rack[9].node[5].app 	hops
field count 20081
field mean 3
field stddev 0.71040923058502
field sum 60243
field sqrsum 190863
field min 2
field max 4
statistic Basic.rack[9].node[6].app 	throughput
field count 19847
field mean 9924
field stddev 5729.4797320525
field sum 196961628
field sqrsum 2606130607820
field min 1
field max 19847
statistic Basic.rack[9].node[6].app 	"End-to-End Delay"
field count 19847
field mean 9.3256912368636e-006
field stddev 6.5380755363505e-006
field sum 0.18508699397803
field sqrsum 2.5744098416942e-006
field min 4e-007
field max 3.9557779e-005
statistic Basic.rack[9].node[6].app 	hops
field count 19847
field mean 2.9906283065451
field stddev 0.70522505597404
field sum 59355
field sqrsum 187379
field min 2
field max 4
statistic Basic.rack[9].node[7].app 	throughput
field count 20156
field mean 10078.5
field stddev 5818.6803486701
field sum 203142246
field sqrsum 2729757787666
field min 1
field max 20156
statistic Basic.rack[9].node[7].app 	"End-to-End Delay"
field count 20156
field mean 9.3970841050821e-006
field stddev 6.5767294985367e-006
field sum 0.18940762722203
field sqrsum 2.651651093577e-006
field min 4e-007
field max 4.4454829e-005
statistic Basic.rack[9].node[7].app 	hops
field count 20156
field mean 2.997717801151
field stddev 0.70992171219959
field sum 60422
field sqrsum 191286
field min 2
field max 4
statistic Basic.rack[9].node[8].app 	throughput
field count 20273
field mean 10137
field stddev 5852.4553394281
field sum 205507401
field sqrsum 2777569529449
field min 1
field max 20273
statistic Basic.rack[9].node[8].app 	"End-to-End Delay"
field count 20273
field mean 9.4969772667112e-006
field stddev 6.5036760690156e-006
field sum 0.19253222012804
field sqrsum 2.6859351681348e-006
field min 4e-007
field max 3.8772064e-005
statistic Basic.rack[9].node[8].app 	hops
field count 20273
field mean 3.0097173580624
field stddev 0.70329748473559
field sum 61016
field sqrsum 193668
field min 2
field max 4
statistic Basic.rack[9].node[9].app 	throughput
field count 20154
field mean 10077.5
field stddev 5818.1029984008
field sum 203101935
field sqrsum 2728945299305
field min 1
field max 20154
statistic Basic.rack[9].node[9].app 	"End-to-End Delay"
field count 20154
field mean 9.3798054198191e-006
field stddev 6.509093192728e-006
field sum 0.18904059843103
field sqrsum 2.627012262573e-006
field min 4e-007
field max 3.8074926e-005
statistic Basic.rack[9].node[9].app 	hops
field count 20154
field mean 2.9994542026397
field stddev 0.70607074728749
field sum 60451
field sqrsum 191367
field min 2
field max 4
statistic Basic.rack[9].eps.queue[0] 	dropsum
field count 0
field mean nan
field stddev nan
field sum 0
field sqrsum 0
field min nan
field max nan
statistic Basic.rack[9].eps.queue[1] 	dropsum
field count 0
field mean nan
field stddev nan
field sum 0
field sqrsum 0
field min nan
field max nan
statistic Basic.rack[9].eps.queue[2] 	dropsum
field count 0
field mean nan
field stddev nan
field sum 0
field sqrsum 0
field min nan
field max nan
statistic Basic.rack[9].eps.queue[3] 	dropsum
field count 0
field mean nan
field stddev nan
field sum 0
field sqrsum 0
field min nan
field max nan
statistic Basic.rack[10].node[0].app 	throughput
field count 20157
field mean 10079
field stddev 5818.9690238048
field sum 203162403
field sqrsum 2730164092315
field min 1
field max 20157
statistic Basic.rack[10].node[0].app 	"End-to-End Delay"
field count 20157
field mean 7.1732536846756e-006
field stddev 7.451735936464e-006
field sum 0.14459127452201
field sqrsum 2.1564196875535e-006
field min 4e-007
field max 4.7300873e-005
statistic Basic.rack[10].node[0].app 	hops
field count 20157
field mean 3.2505333134891
field stddev 0.8311748884092
field sum 65521
field sqrsum 226903
field min 2
field max 4
statistic Basic.rack[10].node[1].app 	throughput
field count 19959
field mean 9980
field stddev 5761.8113471373
field sum 199190820
field sqrsum 2650499447860
field min 1
field max 19959
statistic Basic.rack[10].node[1].app 	"End-to-End Delay"
field count 19959
field mean 7.3224937014883e-006
field stddev 7.5017088798284e-006
field sum 0.14614965178801
field sqrsum 2.1933290503293e-006
field min 4e-007
field max 3.9036796e-005
statistic Basic.rack[10].node[1].app 	hops
field count 19959
field mean 3.2515657097049
field stddev 0.83111069844156
field sum 64898
field sqrsum 224806
field min 2
field max 4
statistic Basic.rack[10].node[2].app 	throughput
field count 19968
field mean 9984.5
field stddev 5764.4094233495
field sum 199370496
field sqrsum 2654086499584
field min 1
field max 19968
statistic Basic.rack[10].node[2].app 	"End-to-End Delay"
field count 19968
field mean 7.2363752733876e-006
field stddev 7.4844811626545e-006
field sum 0.144495941459
field sqrsum 2.1641274472384e-006
field min 4e-007
field max 3.8572959e-005
statistic Basic.rack[10].node[2].app 	hops
field count 19968
field mean 3.2524038461538
field stddev 0.83032029556555
field sum 64944
field sqrsum 224990
field min 2
field max 4
statistic Basic.rack[10].node[3].app 	throughput
field count 19825
field mean 9913
field stddev 5723.1288790894
field sum 196525225
field sqrsum 2597473898825
field min 1
field max 19825
statistic Basic.rack[10].node[3].app 	"End-to-End Delay"
field count 19825
field mean 7.173070613115e-006
field stddev 7.4533431645517e-006
field sum 0.142206124905
field sqrsum 2.1213238530506e-006
field min 4e-007
field max 4.14387e-005
statistic Basic.rack[10].node[3].app 	hops
field count 19825
field mean 3.2465573770492
field stddev 0.83145958252828
field sum 64363
field sqrsum 222663
field min 2
field max 4
statistic Basic.rack[10].node[4].app 	throughput
field count 20192
field mean 10096.5
field stddev 5829.0726535187
field sum 203868528
field sqrsum 2744410167760
field min 1
field max 20192
statistic Basic.rack[10].node[4].app 	"End-to-End Delay"
field count 20192
field mean 7.2061301617475e-006
field stddev 7.4195567329069e-006
field sum 0.145506180226
field sqrsum 2.1600474323273e-006
field min 4e-007
field max 4.4853495e-005
statistic Basic.rack[10].node[4].app 	hops
field count 20192
field mean 3.2603506339144
field stddev 0.82415422560596
field sum 65833
field sqrsum 228353
field min 2
field max 4
statistic Basic.rack[10].node[5].app 	throughput
field count 19945
field mean 9973
field stddev 5757.7698952517
field sum 198911485
field sqrsum 2644926016045
field min 1
field max 19945
statistic Basic.rack[10].node[5].app 	"End-to-End Delay"
field count 19945
field mean 7.1269496166962e-006
field stddev 7.4061337677803e-006
field sum 0.14214701010501
field sqrsum 2.1070192811339e-006
field min 4e-007
field max 3.6098613e-005
statistic Basic.rack[10].node[5].app 	hops
field count 19945
field mean 3.2405615442467
field stddev 0.83115798233048
field sum 64633
field sqrsum 223225
field min 2
field max 4
statistic Basic.rack[10].node[6].app 	throughput
field count 19987
field mean 9994
field stddev 5769.8942509085
field sum 199750078
field sqrsum 2661669789350
field min 1
field max 19987
statistic Basic.rack[10].node[6].app 	"End-to-End Delay"
field count 19987
field mean 7.2356702300498e-006
field stddev 7.4277368641122e-006
field sum 0.144619340888
field sqrsum 2.1490709601537e-006
field min 4e-007
field max 3.9639209e-005
statistic Basic.rack[10].node[6].app 	hops
field count 19987
field mean 3.248811727623
field stddev 0.82859130964393
field sum 64934
field sqrsum 224680
field min 2
field max 4
statistic Basic.rack[10].node[7].app 	throughput
field count 19862
field mean 9931.5
field stddev 5733.8098590728
field sum 197259453
field sqrsum 2612043923475
field min 1
field max 19862
statistic Basic.rack[10].node[7].app 	"End-to-End Delay"
field count 19862
field mean 7.1565649139062e-006
field stddev 7.4112149673271e-006
field sum 0.14214369232
field sqrsum 2.1081479781155e-006
field min 4e-007
field max 3.7671795e-005
statistic Basic.rack[10].node[7].app 	hops
field count 19862
field mean 3.2347195649985
field stddev 0.83331449046986
field sum 64248
field sqrsum 221616
field min 2
field max 4
statistic Basic.rack[10].node[8].app 	throughput
field count 20156
field mean 10078.5
field stddev 5818.6803486701
field sum 203142246
field sqrsum 2729757787666
field min 1
field max 20156
statistic Basic.rack[10].node[8].app 	"End-to-End Delay"
field count 20156
field mean 7.1256411175335e-006
field stddev 7.4262763454213e-006
field sum 0.14362442236501
field sqrsum 2.1349558816129e-006
field min 4e-007
field max 3.897557e-005
statistic Basic.rack[10].node[8].app 	hops
field count 20156
field mean 3.2550109148641
field stddev 0.82965514254383
field sum 65608
field sqrsum 227428
field min 2
field max 4
statistic Basic.rack[10].node[9].app 	throughput
field count 20004
field mean 10002.5
field stddev 5774.8017281981
field sum 200090010
field sqrsum 2668467070030
field min 1
field max 20004
statistic Basic.rack[10].node[9].app 	"End-to-End Delay"
field count 20004
field mean 7.1942659394124e-006
field stddev 7.4313333694687e-006
field sum 0.14391409585201
field sqrsum 2.1400162651e-006
field min 4e-007
field max 4.2066679e-005
statistic Basic.rack[10].node[9].app 	hops
field count 20004
field mean 3.254299140172
field stddev 0.82678079242654
field sum 65099
field sqrsum 225525
field min 2
field max 4
statistic Basic.rack[10].eps.queue[0] 	dropsum
field count 0
field mean nan
field stddev nan
field sum 0
field sqrsum 0
field min nan
field max nan
statistic Basic.rack[10].eps.queue[1] 	dropsum
field count 0
field mean nan
field stddev nan
field sum 0
field sqrsum 0
field min nan
field max nan
statistic Basic.rack[10].eps.queue[2] 	dropsum
field count 0
field mean nan
field stddev nan
field sum 0
field sqrsum 0
field min nan
field max nan
statistic Basic.rack[10].eps.queue[3] 	dropsum
field count 0
field mean nan
field stddev nan
field sum 0
field sqrsum 0
field min nan
field max nan
statistic Basic.rack[11].node[0].app 	throughput
field count 19902
field mean 9951.5
field stddev 5745.3568644602
field sum 198054753
field sqrsum 2627856481055
field min 1
field max 19902
statistic Basic.rack[11].node[0].app 	"End-to-End Delay"
field count 19902
field mean 7.3140782512312e-006
field stddev 7.4776866549322e-006
field sum 0.145564785356
field sqrsum 2.1774525209313e-006
field min 4e-007
field max 3.763377e-005
statistic Basic.rack[11].node[0].app 	hops
field count 19902
field mean 3.2409808059492
field stddev 0.83158637883593
field sum 64502
field sqrsum 222812
field min 2
field max 4
statistic Basic.rack[11].node[1].app 	throughput
field count 19946
field mean 9973.5
field stddev 5758.0585703864
field sum 198931431
field sqrsum 2645323858961
field min 1
field max 19946
statistic Basic.rack[11].node[1].app 	"End-to-End Delay"
field count 19946
field mean 7.2366251500052e-006
field stddev 7.4232094602958e-006
field sum 0.144341725242
field sqrsum 2.1435970107819e-006
field min 4e-007
field max 3.8864679e-005
statistic Basic.rack[11].node[1].app 	hops
field count 19946
field mean 3.2501253384137
field stddev 0.82761091029208
field sum 64827
field sqrsum 224357
field min 2
field max 4
statistic Basic.rack[11].node[2].app 	throughput
field count 20160
field mean 10080.5
field stddev 5819.8350492089
field sum 203222880
field sqrsum 2731383248160
field min 1
field max 20160
statistic Basic.rack[11].node[2].app 	"End-to-End Delay"
field count 20160
field mean 7.2137560033732e-006
field stddev 7.4537724332118e-006
field sum 0.145429321028
field sqrsum 2.1690999443887e-006
field min 4e-007
field max 4.1877984e-005
statistic Basic.rack[11].node[2].app 	hops
field count 20160
field mean 3.253621031746
field stddev 0.82864521523802
field sum 65593
field sqrsum 227257
field min 2
field max 4
statistic Basic.rack[11].node[3].app 	throughput
field count 19984
field mean 9992.5
field stddev 5769.0282255044
field sum 199690120
field sqrsum 2660471468760
field min 1
field max 19984
statistic Basic.rack[11].node[3].app 	"End-to-End Delay"
field count 19984
field mean 7.2240573968678e-006
field stddev 7.4421190931427e-006
field sum 0.14436556301901
field sqrsum 2.1496662979887e-006
field min 4e-007
field max 3.355489e-005
statistic Basic.rack[11].node[3].app 	hops
field count 19984
field mean 3.2451961569255
field stddev 0.83067048399969
field sum 64852
field sqrsum 224246
field min 2
field max 4
statistic Basic.rack[11].node[4].app 	throughput
field count 20042
field mean 10021.5
field stddev 5785.7713833161
field sum 200850903
field sqrsum 2683702815585
field min 1
field max 20042
statistic Basic.rack[11].node[4].app 	"End-to-End Delay"
field count 20042
field mean 7.3008162926856e-006
field stddev 7.4530730726893e-006
field sum 0.14632296013801
field sqrsum 2.1815204961338e-006
field min 4e-007
field max 3.5895353e-005
statistic Basic.rack[11].node[4].app 	hops
field count 20042
field mean 3.2490769384293
field stddev 0.82826568616113
field sum 65118
field sqrsum 225322
field min 2
field max 4
statistic Basic.rack[11].node[5].app 	throughput
field count 19916
[...]
field count 19686
field mean 9.4549388593433e-006
field stddev 6.5667610400266e-006
field sum 0.18612992638503
field sqrsum 2.6087105445754e-006
field min 4e-007
field max 4.157958e-005
statistic Basic.rack[13].node[1].app 	hops
field count 19686
field mean 3.0039114091232
field stddev 0.70797549575581
field sum 59135
field sqrsum 187503
field min 2
field max 4
statistic Basic.rack[13].node[2].app 	throughput
field count 20161
field mean 10081
field stddev 5820.1237243436
field sum 203243041
field sqrsum 2731789714081
field min 1
field max 20161
statistic Basic.rack[13].node[2].app 	"End-to-End Delay"
field count 20161
field mean 9.4132437621167e-006
field stddev 6.5235693106016e-006
field sum 0.18978040748804
field sqrsum 2.6443974810112e-006
field min 4e-007
field max 3.8011591e-005
statistic Basic.rack[13].node[2].app 	hops
field count 20161
field mean 3.0006448092853
field stddev 0.70601833247279
field sum 60496
field sqrsum 191576
field min 2
field max 4
statistic Basic.rack[13].node[3].app 	throughput
field count 20118
field mean 10059.5
field stddev 5807.7106935522
field sum 202377021
field sqrsum 2714348064659
field min 1
field max 20118
statistic Basic.rack[13].node[3].app 	"End-to-End Delay"
field count 20118
field mean 9.4473199544705e-006
field stddev 6.5843065658152e-006
field sum 0.19006118284404
field sqrsum 2.667702976181e-006
field min 4e-007
field max 3.846921e-005
statistic Basic.rack[13].node[3].app 	hops
field count 20118
field mean 3.0014414951784
field stddev 0.70824675857111
field sum 60383
field sqrsum 191327
field min 2
field max 4
statistic Basic.rack[13].node[4].app 	throughput
field count 19779
field mean 9890
field stddev 5709.8498228938
field sum 195614310
field sqrsum 2579435496430
field min 1
field max 19779
statistic Basic.rack[13].node[4].app 	"End-to-End Delay"
field count 19779
field mean 9.4228308141986e-006
field stddev 6.5352535984499e-006
field sum 0.18637417067403
field sqrsum 2.6008815525287e-006
field min 4e-007
field max 4.1340904e-005
statistic Basic.rack[13].node[4].app 	hops
field count 19779
field mean 3.0008089387734
field stddev 0.70391717989136
field sum 59353
field sqrsum 187907
field min 2
field max 4
statistic Basic.rack[13].node[5].app 	throughput
field count 19914
field mean 9957.5
field stddev 5748.8209660764
field sum 198293655
field sqrsum 2632612661665
field min 1
field max 19914
statistic Basic.rack[13].node[5].app 	"End-to-End Delay"
field count 19914
field mean 9.4363735911437e-006
field stddev 6.5672651308271e-006
field sum 0.18791594369404
field sqrsum 2.6320722538978e-006
field min 4e-007
field max 4.1928909e-005
statistic Basic.rack[13].node[5].app 	hops
field count 19914
field mean 3.0007532389274
field stddev 0.70698208465754
field sum 59757
field sqrsum 189269
field min 2
field max 4
statistic Basic.rack[13].node[6].app 	throughput
field count 20045
field mean 10023
field stddev 5786.6374087202
field sum 200911035
field sqrsum 2684908101395
field min 1
field max 20045
statistic Basic.rack[13].node[6].app 	"End-to-End Delay"
field count 20045
field mean 9.4927875749082e-006
field stddev 6.579333549118e-006
field sum 0.19028292693903
field sqrsum 2.6739726592929e-006
field min 4e-007
field max 4.1984112e-005
statistic Basic.rack[13].node[6].app 	hops
field count 20045
field mean 3.0073833873784
field stddev 0.70897077225397
field sum 60283
field sqrsum 191369
field min 2
field max 4
statistic Basic.rack[13].node[7].app 	throughput
field count 19972
field mean 9986.5
field stddev 5765.5641238882
field sum 199450378
field sqrsum 2655681783070
field min 1
field max 19972
statistic Basic.rack[13].node[7].app 	"End-to-End Delay"
field count 19972
field mean 9.3398045548284e-006
field stddev 6.5638715087959e-006
field sum 0.18653457656903
field sqrsum 2.6026352236858e-006
field min 4e-007
field max 3.741049e-005
statistic Basic.rack[13].node[7].app 	hops
field count 19972
field mean 2.9914380132185
field stddev 0.70880553233796
field sum 59745
field sqrsum 188757
field min 2
field max 4
statistic Basic.rack[13].node[8].app 	throughput
field count 19969
field mean 9985
field stddev 5764.6980984841
field sum 199390465
field sqrsum 2654485260545
field min 1
field max 19969
statistic Basic.rack[13].node[8].app 	"End-to-End Delay"
field count 19969
field mean 9.3446278753585e-006
field stddev 6.530056608038e-006
field sum 0.18660287404303
field sqrsum 2.5952026720304e-006
field min 4e-007
field max 3.7643092e-005
statistic Basic.rack[13].node[8].app 	hops
field count 19969
field mean 2.9911863388252
field stddev 0.70613046397469
field sum 59731
field sqrsum 188623
field min 2
field max 4
statistic Basic.rack[13].node[9].app 	throughput
field count 19839
field mean 9920
field stddev 5727.170330975
field sum 196802880
field sqrsum 2602980491840
field min 1
field max 19839
statistic Basic.rack[13].node[9].app 	"End-to-End Delay"
field count 19839
field mean 9.418786916933e-006
field stddev 6.5640408777441e-006
field sum 0.18685931364503
field sqrsum 2.6147406770724e-006
field min 4e-007
field max 3.680959e-005
statistic Basic.rack[13].node[9].app 	hops
field count 19839
field mean 3.0016633902918
field stddev 0.7108730643131
field sum 59550
field sqrsum 188774
field min 2
field max 4
statistic Basic.rack[13].eps.queue[0] 	dropsum
field count 0
field mean nan
field stddev nan
field sum 0
field sqrsum 0
field min nan
field max nan
statistic Basic.rack[13].eps.queue[1] 	dropsum
field count 0
field mean nan
field stddev nan
field sum 0
field sqrsum 0
field min nan
field max nan
statistic Basic.rack[13].eps.queue[2] 	dropsum
field count 0
field mean nan
field stddev nan
field sum 0
field sqrsum 0
field min nan
field max nan
statistic Basic.rack[13].eps.queue[3] 	dropsum
field count 0
field mean nan
field stddev nan
field sum 0
field sqrsum 0
field min nan
field max nan
statistic Basic.rack[14].node[0].app 	throughput
field count 20091
field mean 10046
field stddev 5799.9164649157
field sum 201834186
field sqrsum 2703434365346
field min 1
field max 20091
statistic Basic.rack[14].node[0].app 	"End-to-End Delay"
field count 20091
field mean 7.2231771601217e-006
field stddev 7.5054318665585e-006
field sum 0.14512085232401
field sqrsum 2.1799336117105e-006
field min 4e-007
field max 3.710978e-005
statistic Basic.rack[14].node[0].app 	hops
field count 20091
field mean 3.2457816932955
field stddev 0.83556849732002
field sum 65211
field sqrsum 225687
field min 2
field max 4
statistic Basic.rack[14].node[1].app 	throughput
field count 20076
field mean 10038.5
field stddev 5795.5863378954
field sum 201532926
field sqrsum 2697383859226
field min 1
field max 20076
statistic Basic.rack[14].node[1].app 	"End-to-End Delay"
field count 20076
field mean 7.2775103955969e-006
field stddev 7.4566054368322e-006
field sum 0.146103298702
field sqrsum 2.1794576402948e-006
field min 4e-007
field max 4.0151288e-005
statistic Basic.rack[14].node[1].app 	hops
field count 20076
field mean 3.2565252042239
field stddev 0.82630764169112
field sum 65378
field sqrsum 226612
field min 2
field max 4
statistic Basic.rack[14].node[2].app 	throughput
field count 20096
field mean 10048.5
field stddev 5801.3598405891
field sum 201934656
field sqrsum 2705453209536
field min 1
field max 20096
statistic Basic.rack[14].node[2].app 	"End-to-End Delay"
field count 20096
field mean 7.2384462346241e-006
field stddev 7.4818146673733e-006
field sum 0.14546381553101
field sqrsum 2.177800889461e-006
field min 4e-007
field max 4.3808744e-005
statistic Basic.rack[14].node[2].app 	hops
field count 20096
field mean 3.2458200636943
field stddev 0.83287900020343
field sum 65228
field sqrsum 225658
field min 2
field max 4
statistic Basic.rack[14].node[3].app 	throughput
field count 20025
field mean 10013
field stddev 5780.8639060265
field sum 200510325
field sqrsum 2676879675525
field min 1
field max 20025
statistic Basic.rack[14].node[3].app 	"End-to-End Delay"
field count 20025
field mean 7.2770215293385e-006
field stddev 7.4581229622736e-006
field sum 0.145722356125
field sqrsum 2.1742316515903e-006
field min 4e-007
field max 4.0278868e-005
statistic Basic.rack[14].node[3].app 	hops
field count 20025
field mean 3.2513857677903
field stddev 0.82813237973235
field sum 65109
field sqrsum 225427
field min 2
field max 4
statistic Basic.rack[14].node[4].app 	throughput
field count 20003
field mean 10002
field stddev 5774.5130530634
field sum 200070006
field sqrsum 2668066910014
field min 1
field max 20003
statistic Basic.rack[14].node[4].app 	"End-to-End Delay"
field count 20003
field mean 7.1680948441236e-006
field stddev 7.4131733097739e-006
field sum 0.143383401167
field sqrsum 2.12699849933e-006
field min 4e-007
field max 3.54354e-005
statistic Basic.rack[14].node[4].app 	hops
field count 20003
field mean 3.2435634654802
field stddev 0.83060155906068
field sum 64881
field sqrsum 224245
field min 2
field max 4
statistic Basic.rack[14].node[5].app 	throughput
field count 19674
field mean 9837.5
field stddev 5679.5389337516
field sum 193542975
field sqrsum 2538574174425
field min 1
field max 19674
statistic Basic.rack[14].node[5].app 	"End-to-End Delay"
field count 19674
field mean 7.1998352631902e-006
field stddev 7.4259135788068e-006
field sum 0.141649558968
field sqrsum 2.1047051883304e-006
field min 4e-007
field max 3.8648113e-005
statistic Basic.rack[14].node[5].app 	hops
field count 19674
field mean 3.2450950493036
field stddev 0.82918575115903
field sum 63844
field sqrsum 220706
field min 2
field max 4
statistic Basic.rack[14].node[6].app 	throughput
field count 20101
field mean 10051
field stddev 5802.8032162625
field sum 202035151
field sqrsum 2707473058551
field min 1
field max 20101
statistic Basic.rack[14].node[6].app 	"End-to-End Delay"
field count 20101
field mean 7.4174370118901e-006
field stddev 7.5260213281102e-006
field sum 0.149097901376
field sqrsum 2.244408332388e-006
field min 4e-007
field max 3.737913e-005
statistic Basic.rack[14].node[6].app 	hops
field count 20101
field mean 3.2641162131237
field stddev 0.82747614309378
field sum 65612
field sqrsum 227928
field min 2
field max 4
statistic Basic.rack[14].node[7].app 	throughput
field count 20041
field mean 10021
field stddev 5785.4827081815
field sum 200830861
field sqrsum 2683301133821
field min 1
field max 20041
statistic Basic.rack[14].node[7].app 	"End-to-End Delay"
field count 20041
field mean 7.1991221885138e-006
field stddev 7.4385923980613e-006
field sum 0.14427760778001
field sqrsum 2.1475385710392e-006
field min 4e-007
field max 3.6225687e-005
statistic Basic.rack[14].node[7].app 	hops
field count 20041
field mean 3.2497380370241
field stddev 0.82811925062048
field sum 65128
field sqrsum 225392
field min 2
field max 4
statistic Basic.rack[14].node[8].app 	throughput
field count 19965
field mean 9983
field stddev 5763.5433979454
field sum 199310595
field sqrsum 2652890456315
field min 1
field max 19965
statistic Basic.rack[14].node[8].app 	"End-to-End Delay"
field count 19965
field mean 7.2222803601305e-006
field stddev 7.4446206684627e-006
field sum 0.14419282739001
field sqrsum 2.1478533577083e-006
field min 4e-007
field max 3.6256506e-005
statistic Basic.rack[14].node[8].app 	hops
field count 19965
field mean 3.2515902829952
field stddev 0.82988117547241
field sum 64918
field sqrsum 224836
field min 2
field max 4
statistic Basic.rack[14].node[9].app 	throughput
field count 20051
field mean 10026
field stddev 5788.3694595283
field sum 201031326
field sqrsum 2687319755526
field min 1
field max 20051
statistic Basic.rack[14].node[9].app 	"End-to-End Delay"
field count 20051
field mean 7.2647653915519e-006
field stddev 7.4757257156262e-006
field sum 0.14566581086601
field sqrsum 2.178751764766e-006
field min 4e-007
field max 3.8397784e-005
statistic Basic.rack[14].node[9].app 	hops
field count 20051
field mean 3.2564460625405
field stddev 0.83002732119852
field sum 65295
field sqrsum 226443
field min 2
field max 4
statistic Basic.rack[14].eps.queue[0] 	dropsum
field count 0
field mean nan
field stddev nan
field sum 0
field sqrsum 0
field min nan
field max nan
statistic Basic.rack[14].eps.queue[1] 	dropsum
field count 0
field mean nan
field stddev nan
field sum 0
field sqrsum 0
field min nan
field max nan
statistic Basic.rack[14].eps.queue[2] 	dropsum
field count 0
field mean nan
field stddev nan
field sum 0
field sqrsum 0
field min nan
field max nan
statistic Basic.rack[14].eps.queue[3] 	dropsum
field count 0
field mean nan
field stddev nan
field sum 0
field sqrsum 0
field min nan
field max nan
statistic Basic.rack[15].node[0].app 	throughput
field count 20288
field mean 10144.5
field stddev 5856.7854664483
field sum 205811616
field sqrsum 2783739314144
field min 1
field max 20288
statistic Basic.rack[15].node[0].app 	"End-to-End Delay"
field count 20288
field mean 7.1716663919068e-006
field stddev 7.4492198383835e-006
field sum 0.14549876775901
field sqrsum 2.169212028282e-006
field min 4e-007
field max 3.7310674e-005
statistic Basic.rack[15].node[0].app 	hops
field count 20288
field mean 3.247535488959
field stddev 0.82973753376714
field sum 65886
field sqrsum 227934
field min 2
field max 4
statistic Basic.rack[15].node[1].app 	throughput
field count 19896
field mean 9948.5
field stddev 5743.6248136521
field sum 197935356
field sqrsum 2625480540436
field min 1
field max 19896
statistic Basic.rack[15].node[1].app 	"End-to-End Delay"
field count 19896
field mean 7.1941032169283e-006
field stddev 7.4407977991241e-006
field sum 0.143133877604
field sqrsum 2.1312159525232e-006
field min 4e-007
field max 4.0293197e-005
statistic Basic.rack[15].node[1].app 	hops
field count 19896
field mean 3.246984318456
field stddev 0.83092765448144
field sum 64602
field sqrsum 223498
field min 2
field max 4
statistic Basic.rack[15].node[2].app 	throughput
field count 19953
field mean 9977
field stddev 5760.0792963292
field sum 199071081
field sqrsum 2648109876489
field min 1
field max 19953
statistic Basic.rack[15].node[2].app 	"End-to-End Delay"
field count 19953
field mean 7.2522456561923e-006
field stddev 7.4026733713128e-006
field sum 0.14470405757801
field sqrsum 2.1427904543443e-006
field min 4e-007
field max 3.6568283e-005
statistic Basic.rack[15].node[2].app 	hops
field count 19953
field mean 3.2517415927429
field stddev 0.82398700839188
field sum 64882
field sqrsum 224526
field min 2
field max 4
statistic Basic.rack[15].node[3].app 	throughput
field count 20090
field mean 10045.5
field stddev 5799.627789781
field sum 201814095
field sqrsum 2703030717065
field min 1
field max 20090
statistic Basic.rack[15].node[3].app 	"End-to-End Delay"
field count 20090
field mean 7.2855194155802e-006
field stddev 7.4664745865617e-006
field sum 0.14636608505901
field sqrsum 2.1862794031202e-006
field min 4e-007
field max 5.1170754e-005
statistic Basic.rack[15].node[3].app 	hops
field count 20090
field mean 3.2523145843703
field stddev 0.82797957120533
field sum 65339
field sqrsum 226275
field min 2
field max 4
statistic Basic.rack[15].node[4].app 	throughput
field count 20057
field mean 10029
field stddev 5790.1015103364
field sum 201151653
field sqrsum 2689732853365
field min 1
field max 20057
statistic Basic.rack[15].node[4].app 	"End-to-End Delay"
field count 20057
field mean 7.2176977613305e-006
field stddev 7.4535495470075e-006
field sum 0.144765363999
field sqrsum 2.1590917630953e-006
field min 4e-007
field max 4.7769563e-005
statistic Basic.rack[15].node[4].app 	hops
field count 20057
field mean 3.2486912299945
field stddev 0.83008859492717
field sum 65159
field sqrsum 225501
field min 2
field max 4
statistic Basic.rack[15].node[5].app 	throughput
field count 19870
field mean 9935.5
field stddev 5736.1192601503
field sum 197418385
field sqrsum 2615201346095
field min 1
field max 19870
statistic Basic.rack[15].node[5].app 	"End-to-End Delay"
field count 19870
field mean 7.1307864297435e-006
field stddev 7.4425983506306e-006
field sum 0.141688726359
field sqrsum 2.1109410639473e-006
field min 4e-007
field max 4.5073675e-005
statistic Basic.rack[15].node[5].app 	hops
field count 19870
field mean 3.2526925012582
field stddev 0.83231547736536
field sum 64631
field sqrsum 223989
field min 2
field max 4
statistic Basic.rack[15].node[6].app 	throughput
field count 19805
field mean 9903
field stddev 5717.3553763956
field sum 196128915
field sqrsum 2589620817355
field min 1
field max 19805
statistic Basic.rack[15].node[6].app 	"End-to-End Delay"
field count 19805
field mean 7.1312575145168e-006
field stddev 7.4338620025965e-006
field sum 0.141234555075
field sqrsum 2.1015946560234e-006
field min 4e-007
field max 4.4719844e-005
statistic Basic.rack[15].node[6].app 	hops
field count 19805
field mean 3.2489270386266
field stddev 0.83084563474361
field sum 64345
field sqrsum 222723
field min 2
field max 4
statistic Basic.rack[15].node[7].app 	throughput
field count 19917
field mean 9959
field stddev 5749.6869914805
field sum 198353403
field sqrsum 2633802602835
field min 1
field max 19917
statistic Basic.rack[15].node[7].app 	"End-to-End Delay"
field count 19917
field mean 7.2155088760358e-006
field stddev 7.4543802578817e-006
field sum 0.14371129028401
field sqrsum 2.1436380972703e-006
field min 4e-007
field max 3.8103066e-005
statistic Basic.rack[15].node[7].app 	hops
field count 19917
field mean 3.2488326555204
field stddev 0.82995925435553
field sum 64707
field sqrsum 223941
field min 2
field max 4
statistic Basic.rack[15].node[8].app 	throughput
field count 20245
field mean 10123
field stddev 5844.3724356569
field sum 204940135
field sqrsum 2766077002095
field min 1
field max 20245
statistic Basic.rack[15].node[8].app 	"End-to-End Delay"
field count 20245
field mean 7.2110461011611e-006
field stddev 7.4391681602523e-006
field sum 0.14598762831801
field sqrsum 2.1730512347222e-006
field min 4e-007
field max 4.1835236e-005
statistic Basic.rack[15].node[8].app 	hops
field count 20245
field mean 3.2465300074092
field stddev 0.83043069069016
field sum 65726
field sqrsum 227342
field min 2
field max 4
statistic Basic.rack[15].node[9].app 	throughput
field count 20021
field mean 10011
field stddev 5779.7092054878
field sum 200430231
field sqrsum 2675275913311
field min 1
field max 20021
statistic Basic.rack[15].node[9].app 	"End-to-End Delay"
field count 20021
field mean 7.1942810651319e-006
field stddev 7.4420484465283e-006
field sum 0.14403670120501
field sqrsum 2.1450298954743e-006
field min 4e-007
field max 4.1163592e-005
statistic Basic.rack[15].node[9].app 	hops
field count 20021
field mean 3.2482393486839
field stddev 0.82917127112268
field sum 65033
field sqrsum 225007
field min 2
field max 4
statistic Basic.rack[15].eps.queue[0] 	dropsum
field count 0
field mean nan
field stddev nan
field sum 0
field sqrsum 0
field min nan
field max nan
statistic Basic.rack[15].eps.queue[1] 	dropsum
field count 0
field mean nan
field stddev nan
field sum 0
field sqrsum 0
field min nan
field max nan
statistic Basic.rack[15].eps.queue[2] 	dropsum
field count 0
field mean nan
field stddev nan
field sum 0
field sqrsum 0
field min nan
field max nan
statistic Basic.rack[15].eps.queue[3] 	dropsum
field count 0
field mean nan
field stddev nan
field sum 0
field sqrsum 0
field min nan
field max nan
