version 2
run Basic-40-20180510-17:15:29-19436
attr configname Basic
attr datetime 20180510-17:15:29
attr experiment Basic
attr inifile omnetpp.ini
attr iterationvars "$0=exponential(0.1 ms), $1=6, $2=2"
attr iterationvarsf exponential(0.1_ms),6,2-
attr measurement "$0=exponential(0.1 ms), $1=6, $2=2"
attr network Networks.Basic
attr processid 19436
attr repetition 0
attr replication #0
attr resultdir results
attr runnumber 40
attr seedset 40
param **.frameCapacity 50
param **.packetLength "1024 bytes"
param **.pattern 6
param **.sendIaTime "exponential(0.1 ms)"
param **.tp 2

statistic Basic.rack[0].node[0].app 	throughput
field count 64082
field mean 32041.5
field stddev 18499.024312109
field sum 2053283403
field sqrsum 87719689115165
field min 1
field max 64082
statistic Basic.rack[0].node[0].app 	"End-to-End Delay"
field count 64082
field mean 0.00044506626067244
field stddev 0.00030952688510566
field sum 28.520736116411
field sqrsum 0.018833018859863
field min 9.4416e-006
field max 0.001065981166
statistic Basic.rack[0].node[0].app 	hops
field count 64082
field mean 6.2121344527324
field stddev 1.3929794535744
field sum 398086
field sqrsum 2597306
field min 4
field max 9
statistic Basic.rack[0].node[1].app 	throughput
field count 63956
field mean 31978.5
field stddev 18462.651245149
field sum 2045216946
field sqrsum 87203278404566
field min 1
field max 63956
statistic Basic.rack[0].node[1].app 	"End-to-End Delay"
field count 63956
field mean 0.00044486427519106
field stddev 0.00030914399978309
field sum 28.451739584119
field sqrsum 0.018769342663968
field min 9.4416e-006
field max 0.001041062131
statistic Basic.rack[0].node[1].app 	hops
field count 63956
field mean 6.2105040965664
field stddev 1.3941644540815
field sum 397199
field sqrsum 2591115
field min 4
field max 9
statistic Basic.rack[0].node[2].app 	throughput
field count 63631
field mean 31816
field stddev 18368.831826403
field sum 2024483896
field sqrsum 85880631352216
field min 1
field max 63631
statistic Basic.rack[0].node[2].app 	"End-to-End Delay"
field count 63631
field mean 0.00044339668596439
field stddev 0.00030998290636291
field sum 28.2137745246
field sqrsum 0.018624062787107
field min 9.4416e-006
field max 0.001033343446
statistic Basic.rack[0].node[2].app 	hops
field count 63631
field mean 6.2058116326948
field stddev 1.3956370514853
field sum 394882
field sqrsum 2574502
field min 4
field max 9
statistic Basic.rack[0].node[3].app 	throughput
field count 64010
field mean 32005.5
field stddev 18478.239702418
field sum 2048672055
field sqrsum 87424348384385
field min 1
field max 64010
statistic Basic.rack[0].node[3].app 	"End-to-End Delay"
field count 64010
field mean 0.00044609004883754
field stddev 0.00030944894936295
field sum 28.554224026091
field sqrsum 0.018867170762945
field min 9.4416e-006
field max 0.00102064384
statistic Basic.rack[0].node[3].app 	hops
field count 64010
field mean 6.2173410404624
field stddev 1.3938305277926
field sum 397972
field sqrsum 2598682
field min 4
field max 9
statistic Basic.rack[0].node[4].app 	throughput
field count 64031
field mean 32016
field stddev 18484.301880244
field sum 2050016496
field sqrsum 87510420842416
field min 1
field max 64031
statistic Basic.rack[0].node[4].app 	"End-to-End Delay"
field count 64031
field mean 0.00044553160980097
field stddev 0.00030915382386102
field sum 28.527834507166
field sqrsum 0.018829788870423
field min 9.4416e-006
field max 0.001019329486
statistic Basic.rack[0].node[4].app 	hops
field count 64031
field mean 6.2150520841467
field stddev 1.392213755516
field sum 397956
field sqrsum 2597424
field min 4
field max 9
statistic Basic.rack[0].node[5].app 	throughput
field count 64062
field mean 32031.5
field stddev 18493.250809417
field sum 2052001953
field sqrsum 87637583409375
field min 1
field max 64062
statistic Basic.rack[0].node[5].app 	"End-to-End Delay"
field count 64062
field mean 0.00044447331005348
field stddev 0.00031005910962372
field sum 28.473849188646
field sqrsum 0.018814476028062
field min 9.4416e-006
field max 0.001059342835
statistic Basic.rack[0].node[5].app 	hops
field count 64062
field mean 6.2222378321002
field stddev 1.390655368886
field sum 398609
field sqrsum 2604129
field min 4
field max 9
statistic Basic.rack[0].node[6].app 	throughput
field count 63542
field mean 31771.5
field stddev 18343.139739423
field sum 2018824653
field sqrsum 85520777008835
field min 1
field max 63542
statistic Basic.rack[0].node[6].app 	"End-to-End Delay"
field count 63542
field mean 0.00044323060611523
field stddev 0.00030855898119401
field sum 28.163759173774
field sqrsum 0.018532692553109
field min 9.4416e-006
field max 0.001068190935
statistic Basic.rack[0].node[6].app 	hops
field count 63542
field mean 6.2049982688615
field stddev 1.3861117599983
field sum 394278
field sqrsum 2568576
field min 4
field max 9
statistic Basic.rack[0].node[7].app 	throughput
field count 64209
field mean 32105
field stddev 18535.686054204
field sum 2061429945
field sqrsum 88242257368985
field min 1
field max 64209
statistic Basic.rack[0].node[7].app 	"End-to-End Delay"
field count 64209
field mean 0.00044454899319362
field stddev 0.00031031752904516
field sum 28.544046303969
field sqrsum 0.018872262820911
field min 9.4416e-006
field max 0.001017261325
statistic Basic.rack[0].node[7].app 	hops
field count 64209
field mean 6.2134435982495
field stddev 1.3939690430445
field sum 398959
field sqrsum 2603675
field min 4
field max 9
statistic Basic.rack[0].node[8].app 	throughput
field count 64733
field mean 32367
field stddev 18686.951824736
field sum 2095213011
field sqrsum 90420314298379
field min 1
field max 64733
statistic Basic.rack[0].node[8].app 	"End-to-End Delay"
field count 64733
field mean 0.00044287003570465
field stddev 0.00030862839055592
field sum 28.668306021269
field sqrsum 0.018862152738379
field min 9.4416e-006
field max 0.001042844212
statistic Basic.rack[0].node[8].app 	hops
field count 64733
field mean 6.2004078290825
field stddev 1.3882674427186
field sum 401371
field sqrsum 2613421
field min 4
field max 9
statistic Basic.rack[0].node[9].app 	throughput
field count 63607
field mean 31804
field stddev 18361.903623172
field sum 2022957028
field sqrsum 85783492772340
field min 1
field max 63607
statistic Basic.rack[0].node[9].app 	"End-to-End Delay"
field count 63607
field mean 0.00044303414053208
field stddev 0.00030985803310688
field sum 28.180072576824
field sqrsum 0.018591673549512
field min 9.4416e-006
field max 0.001006389227
statistic Basic.rack[0].node[9].app 	hops
field count 63607
field mean 6.2079959752857
field stddev 1.3887839173966
field sum 394872
field sqrsum 2574042
field min 4
field max 9
statistic Basic.rack[0].eps.queue[0] 	dropsum
field count 0
field mean nan
field stddev nan
field sum 0
field sqrsum 0
field min nan
field max nan
statistic Basic.rack[0].eps.queue[1] 	dropsum
field count 0
field mean nan
field stddev nan
field sum 0
field sqrsum 0
field min nan
field max nan
statistic Basic.rack[0].eps.queue[2] 	dropsum
field count 0
field mean nan
field stddev nan
field sum 0
field sqrsum 0
field min nan
field max nan
statistic Basic.rack[0].eps.queue[3] 	dropsum
field count 0
field mean nan
field stddev nan
field sum 0
field sqrsum 0
field min nan
field max nan
statistic Basic.rack[1].node[0].app 	throughput
field count 70368
field mean 35184.5
field stddev 20313.636208222
field sum 2475862896
field sqrsum 1.1614850546478e+014
field min 1
field max 70368
statistic Basic.rack[1].node[0].app 	"End-to-End Delay"
field count 70368
field mean 0.00029628122016501
field stddev 0.00030013493795916
field sum 20.848716900572
field sqrsum 0.01251581167106
field min 8.496e-007
field max 0.000922741709
statistic Basic.rack[1].node[0].app 	hops
field count 70368
field mean 5.6323186675762
field stddev 1.1477711502554
field sum 396335
field sqrsum 2324985
field min 4
field max 8
statistic Basic.rack[1].node[1].app 	throughput
field count 69919
field mean 34960
field stddev 20184.021072786
field sum 2444368240
field sqrsum 1.1393933677112e+014
field min 1
field max 69919
statistic Basic.rack[1].node[1].app 	"End-to-End Delay"
field count 69919
field mean 0.00029856131478589
field stddev 0.0003000979153976
field sum 20.875108568515
field sqrsum 0.012529228160109
field min 8.496e-007
field max 0.000905828208
statistic Basic.rack[1].node[1].app 	hops
field count 69919
field mean 5.6395257369242
field stddev 1.1524602017535
field sum 394310
field sqrsum 2316584
field min 4
field max 8
statistic Basic.rack[1].node[2].app 	throughput
field count 69901
field mean 34951
field stddev 20178.824920363
field sum 2443109851
field sqrsum 1.1385136216645e+014
field min 1
field max 69901
statistic Basic.rack[1].node[2].app 	"End-to-End Delay"
field count 69901
field mean 0.00029796261551212
field stddev 0.00030024499717126
field sum 20.827884786913
field sqrsum 0.012507210403707
field min 8.496e-007
field max 0.000915972582
statistic Basic.rack[1].node[2].app 	hops
field count 69901
field mean 5.6332813550593
field stddev 1.1489220814716
field sum 393772
field sqrsum 2310498
field min 4
field max 8
statistic Basic.rack[1].node[3].app 	throughput
field count 70114
field mean 35057.5
field stddev 20240.312724033
field sum 2458021555
field sqrsum 1.1489530154536e+014
field min 1
field max 70114
statistic Basic.rack[1].node[3].app 	"End-to-End Delay"
field count 70114
field mean 0.00029869578842693
field stddev 0.0003009586937962
field sum 20.942756509766
field sqrsum 0.012606077746821
field min 8.496e-007
field max 0.000907802481
statistic Basic.rack[1].node[3].app 	hops
field count 70114
field mean 5.6371908605985
field stddev 1.1533834572235
field sum 395246
field sqrsum 2321348
field min 4
field max 8
statistic Basic.rack[1].node[4].app 	throughput
field count 70375
field mean 35188
field stddev 20315.656934165
field sum 2476355500
field sqrsum 1.161831709935e+014
field min 1
field max 70375
statistic Basic.rack[1].node[4].app 	"End-to-End Delay"
field count 70375
field mean 0.0002958432061959
field stddev 0.00030078861189119
field sum 20.819965636037
field sqrsum 0.012526447816796
field min 8.496e-007
field max 0.000966960241
statistic Basic.rack[1].node[4].app 	hops
field count 70375
field mean 5.6390479573712
field stddev 1.1509108034803
field sum 396848
field sqrsum 2331062
field min 4
field max 8
statistic Basic.rack[1].node[5].app 	throughput
field count 70186
field mean 35093.5
field stddev 20261.097333725
field sum 2463072391
field sqrsum 1.1524962024728e+014
field min 1
field max 70186
statistic Basic.rack[1].node[5].app 	"End-to-End Delay"
field count 70186
field mean 0.00030085011960403
field stddev 0.00030101071770134
field sum 21.115466494529
field sqrsum 0.012711874651001
field min 8.496e-007
field max 0.000928958115
statistic Basic.rack[1].node[5].app 	hops
field count 70186
field mean 5.6496309805374
field stddev 1.1548552332256
field sum 396525
field sqrsum 2333825
field min 4
field max 8
statistic Basic.rack[1].node[6].app 	throughput
field count 70017
field mean 35009
field stddev 20212.311235977
field sum 2451225153
field sqrsum 1.1441910476678e+014
field min 1
field max 70017
statistic Basic.rack[1].node[6].app 	"End-to-End Delay"
field count 70017
field mean 0.00029628510874836
field stddev 0.00030048236872262
field sum 20.744994459234
field sqrsum 0.012468153347722
field min 8.496e-007
field max 0.000909922774
statistic Basic.rack[1].node[6].app 	hops
field count 70017
field mean 5.634474484768
field stddev 1.14827204983
field sum 394509
field sqrsum 2315169
field min 4
field max 8
statistic Basic.rack[1].node[7].app 	throughput
field count 70465
field mean 35233
field stddev 20341.637696279
field sum 2482693345
field sqrsum 1.1662948526806e+014
field min 1
field max 70465
statistic Basic.rack[1].node[7].app 	"End-to-End Delay"
field count 70465
field mean 0.00029706614450443
field stddev 0.00030091893408099
field sum 20.932765872505
field sqrsum 0.012599086616818
field min 8.496e-007
field max 0.000907107172
statistic Basic.rack[1].node[7].app 	hops
field count 70465
field mean 5.635521180728
field stddev 1.1532745362924
field sum 397107
field sqrsum 2331625
field min 4
field max 8
statistic Basic.rack[1].node[8].app 	throughput
field count 69843
field mean 34922
field stddev 20162.081762556
field sum 2439057246
field sqrsum 1.1356819650733e+014
field min 1
field max 69843
statistic Basic.rack[1].node[8].app 	"End-to-End Delay"
field count 69843
field mean 0.00029592939558879
field stddev 0.00029894621173338
field sum 20.668596776108
field sqrsum 0.012358143700977
field min 8.496e-007
field max 0.000919443177
statistic Basic.rack[1].node[8].app 	hops
field count 69843
field mean 5.626433572441
field stddev 1.146435094792
field sum 392967
field sqrsum 2302797
field min 4
field max 8
statistic Basic.rack[1].node[9].app 	throughput
field count 70162
field mean 35081.5
field stddev 20254.169130494
field sum 2461388203
field sqrsum 1.1513143319532e+014
field min 1
field max 70162
statistic Basic.rack[1].node[9].app 	"End-to-End Delay"
field count 70162
field mean 0.00029596859671027
field stddev 0.00030024503685287
field sum 20.765748682386
field sqrsum 0.012470818928225
field min 8.496e-007
field max 0.000912982618
statistic Basic.rack[1].node[9].app 	hops
field count 70162
field mean 5.6369829822411
field stddev 1.148847004596
field sum 395502
field sqrsum 2322040
field min 4
field max 8
statistic Basic.rack[1].eps.queue[0] 	dropsum
field count 0
field mean nan
field stddev nan
field sum 0
field sqrsum 0
field min nan
field max nan
statistic Basic.rack[1].eps.queue[1] 	dropsum
field count 0
field mean nan
field stddev nan
field sum 0
field sqrsum 0
field min nan
field max nan
statistic Basic.rack[1].eps.queue[2] 	dropsum
field count 0
field mean nan
field stddev nan
field sum 0
field sqrsum 0
field min nan
field max nan
statistic Basic.rack[1].eps.queue[3] 	dropsum
field count 0
field mean nan
field stddev nan
field sum 0
field sqrsum 0
field min nan
field max nan
statistic Basic.rack[2].node[0].app 	throughput
field count 62778
field mean 31389.5
field stddev 18122.591936586
field sum 1970570031
field sqrsum 82472953794089
field min 1
field max 62778
statistic Basic.rack[2].node[0].app 	"End-to-End Delay"
field count 62778
field mean 0.0003867589432683
field stddev 0.00026940939947876
field sum 24.279952940497
field sqrsum 0.013946933029434
field min 8.496e-007
field max 0.000908979946
statistic Basic.rack[2].node[0].app 	hops
field count 62778
field mean 5.0937111727038
field stddev 1.0227021261815
field sum 319773
field sqrsum 1694491
field min 3
field max 7
statistic Basic.rack[2].node[1].app 	throughput
field count 62789
field mean 31395
field stddev 18125.767363066
field sum 1971260655
field sqrsum 82516313931415
field min 1
field max 62789
statistic Basic.rack[2].node[1].app 	"End-to-End Delay"
field count 62789
field mean 0.00038611890010456
field stddev 0.00026809743086405
field sum 24.244019618665
field sqrsum 0.013874039071458
field min 8.496e-007
field max 0.000917161687
statistic Basic.rack[2].node[1].app 	hops
field count 62789
field mean 5.0874994027616
field stddev 1.0235277572716
field sum 319439
field sqrsum 1690923
field min 3
field max 7
statistic Basic.rack[2].node[2].app 	throughput
field count 62781
field mean 31391
field stddev 18123.457961989
field sum 1970758371
field sqrsum 82484777779291
field min 1
field max 62781
statistic Basic.rack[2].node[2].app 	"End-to-End Delay"
field count 62781
field mean 0.00038326589230526
field stddev 0.0002688037571382
field sum 24.061815984817
field sqrsum 0.01375827114339
field min 8.496e-007
field max 0.000888409105
statistic Basic.rack[2].node[2].app 	hops
field count 62781
field mean 5.08456380115
field stddev 1.0172457706688
field sum 319214
field sqrsum 1688028
field min 3
field max 7
statistic Basic.rack[2].node[3].app 	throughput
field count 62803
field mean 31402
field stddev 18129.808814951
field sum 1972139806
field sqrsum 82571521537414
field min 1
field max 62803
statistic Basic.rack[2].node[3].app 	"End-to-End Delay"
field count 62803
field mean 0.00038433785064889
field stddev 0.00026980665279869
field sum 24.137570034302
field sqrsum 0.013848692935501
field min 8.496e-007
field max 0.000905199441
statistic Basic.rack[2].node[3].app 	hops
field count 62803
field mean 5.0814451538939
field stddev 1.0236713637757
field sum 319130
field sqrsum 1687452
field min 3
field max 7
statistic Basic.rack[2].node[4].app 	throughput
field count 62576
field mean 31288.5
field stddev 18064.279559396
field sum 1957909176
field sqrsum 81679402367976
field min 1
field max 62576
statistic Basic.rack[2].node[4].app 	"End-to-End Delay"
field count 62576
field mean 0.00038737395169141
field stddev 0.00026847296159706
field sum 24.240312401041
field sqrsum 0.013900329629152
field min 8.496e-007
field max 0.000903008842
statistic Basic.rack[2].node[4].app 	hops
field count 62576
field mean 5.0907536435694
field stddev 1.0240855723129
field sum 318559
field sqrsum 1687331
field min 3
field max 7
statistic Basic.rack[2].node[5].app 	throughput
field count 62508
field mean 31254.5
field stddev 18044.649650243
field sum 1953656286
field sqrsum 81413415968954
field min 1
field max 62508
statistic Basic.rack[2].node[5].app 	"End-to-End Delay"
field count 62508
field mean 0.00038842520643224
field stddev 0.00026826212309659
field sum 24.279682803667
field sqrsum 0.013929129975109
field min 8.496e-007
field max 0.000899482179
statistic Basic.rack[2].node[5].app 	hops
field count 62508
field mean 5.0909323606578
field stddev 1.0210883770699
field sum 318224
field sqrsum 1685228
field min 3
field max 7
statistic Basic.rack[2].node[6].app 	throughput
field count 62902
field mean 31451.5
field stddev 18158.387653277
field sum 1978362253
field sqrsum 82962621079555
field min 1
field max 62902
statistic Basic.rack[2].node[6].app 	"End-to-End Delay"
field count 62902
field mean 0.000382567375394
field stddev 0.00026899133820601
field sum 24.064253047033
field sqrsum 0.013757484273239
field min 8.496e-007
field max 0.000905984709
statistic Basic.rack[2].node[6].app 	hops
field count 62902
field mean 5.0815395376936
field stddev 1.0183822905982
field sum 319639
field sqrsum 1689493
field min 3
field max 7
statistic Basic.rack[2].node[7].app 	throughput
field count 62428
field mean 31214.5
field stddev 18021.555639474
field sum 1948658806
field sqrsum 81101230846914
field min 1
field max 62428
statistic Basic.rack[2].node[7].app 	"End-to-End Delay"
field count 62428
field mean 0.00038624910964126
field stddev 0.0002689937026138
field sum 24.112759416684
field sqrsum 0.013830600502877
field min 8.496e-007
field max 0.000931128318
statistic Basic.rack[2].node[7].app 	hops
field count 62428
field mean 5.0856827064779
field stddev 1.0214566028979
field sum 317489
field sqrsum 1679783
field min 3
field max 7
statistic Basic.rack[2].node[8].app 	throughput
field count 62760
field mean 31380.5
field stddev 18117.395784163
field sum 1969440180
field sqrsum 82402033611260
field min 1
field max 62760
statistic Basic.rack[2].node[8].app 	"End-to-End Delay"
field count 62760
field mean 0.00038304072770608
field stddev 0.00026909022760246
field sum 24.039636070833
field sqrsum 0.013752510679911
field min 8.496e-007
field max 0.000890860093
statistic Basic.rack[2].node[8].app 	hops
field count 62760
field mean 5.0833970681963
field stddev 1.0155933000137
field sum 319034
field sqrsum 1686508
field min 3
field max 7
statistic Basic.rack[2].node[9].app 	throughput
field count 62178
field mean 31089.5
field stddev 17949.386855823
field sum 1933082931
field sqrsum 80130798016789
field min 1
field max 62178
statistic Basic.rack[2].node[9].app 	"End-to-End Delay"
field count 62178
field mean 0.00038721502662348
field stddev 0.00026907083843762
field sum 24.076255925395
field sqrsum 0.013824247920741
field min 8.496e-007
field max 0.000917461519
statistic Basic.rack[2].node[9].app 	hops
field count 62178
field mean 5.094325967384
field stddev 1.0226363324538
field sum 316755
field sqrsum 1678677
field min 3
field max 7
statistic Basic.rack[2].eps.queue[0] 	dropsum
field count 0
field mean nan
field stddev nan
field sum 0
field sqrsum 0
field min nan
field max nan
statistic Basic.rack[2].eps.queue[1] 	dropsum
field count 923930
field mean 461965.5
field stddev 266715.76144281
field sum 426823784415
field sqrsum 2.6290367503051e+017
field min 1
field max 923930
statistic Basic.rack[2].eps.queue[2] 	dropsum
field count 0
field mean nan
field stddev nan
field sum 0
field sqrsum 0
field min nan
field max nan
statistic Basic.rack[2].eps.queue[3] 	dropsum
field count 0
field mean nan
field stddev nan
field sum 0
field sqrsum 0
field min nan
field max nan
statistic Basic.rack[3].node[0].app 	throughput
field count 62657
field mean 31329
field stddev 18087.662245299
field sum 1962981153
field sqrsum 81996994396065
field min 1
field max 62657
statistic Basic.rack[3].node[0].app 	"End-to-End Delay"
field count 62657
field mean 0.00036344768005632
field stddev 0.00024635971082179
field sum 22.772541289289
field sqrsum 0.012079414620051
field min 8.496e-007
field max 0.000892470832
statistic Basic.rack[3].node[0].app 	hops
field count 62657
field mean 5.0014204318751
field stddev 0.97688486242497
field sum 313374
field sqrsum 1627108
field min 3
field max 7
statistic Basic.rack[3].node[1].app 	throughput
field count 62357
field mean 31179
field stddev 18001.059704917
field sum 1944228903
field sqrsum 80824835879215
field min 1
field max 62357
statistic Basic.rack[3].node[1].app 	"End-to-End Delay"
field count 62357
field mean 0.00036329035817111
field stddev 0.0002458388113285
field sum 22.653696864476
field sqrsum 0.011998461832162
field min 8.496e-007
field max 0.000903985577
statistic Basic.rack[3].node[1].app 	hops
field count 62357
field mean 4.9965200378466
field stddev 0.97430129814575
field sum 311568
field sqrsum 1615948
field min 3
field max 7
statistic Basic.rack[3].node[2].app 	throughput
field count 62824
field mean 31412.5
field stddev 18135.870992777
field sum 1973458900
field sqrsum 82654379108700
field min 1
field max 62824
statistic Basic.rack[3].node[2].app 	"End-to-End Delay"
field count 62824
field mean 0.00036289063879205
field stddev 0.00024755111667313
field sum 22.798241491472
field sqrsum 0.012123159570941
field min 8.496e-007
field max 0.000901471315
statistic Basic.rack[3].node[2].app 	hops
field count 62824
field mean 4.9965140710556
field stddev 0.97810613079571
field sum 313901
field sqrsum 1628513
field min 3
field max 7
statistic Basic.rack[3].node[3].app 	throughput
field count 63249
field mean 31625
field stddev 18258.557924984
field sum 2000249625
field sqrsum 84343192437625
field min 1
field max 63249
statistic Basic.rack[3].node[3].app 	"End-to-End Delay"
field count 63249
field mean 0.0003634826339078
field stddev 0.00024684624219751
field sum 22.989913112035
field sqrsum 0.012210328811044
field min 8.496e-007
field max 0.000902260434
statistic Basic.rack[3].node[3].app 	hops
field count 63249
field mean 4.9996363578871
field stddev 0.97490157607928
field sum 316222
field sqrsum 1641108
field min 3
field max 7
statistic Basic.rack[3].node[4].app 	throughput
field count 62679
field mean 31340
field stddev 18094.01309826
field sum 1964359860
field sqrsum 82083395896580
field min 1
field max 62679
statistic Basic.rack[3].node[4].app 	"End-to-End Delay"
field count 62679
field mean 0.00036519763182316
field stddev 0.0002461570889392
field sum 22.890222365044
field sqrsum 0.012157322636422
field min 8.496e-007
field max 0.000897021514
statistic Basic.rack[3].node[4].app 	hops
field count 62679
field mean 5.0008934411844
field stddev 0.97947888614433
field sum 313451
field sqrsum 1627667
field min 3
field max 7
statistic Basic.rack[3].node[5].app 	throughput
field count 62431
field mean 31216
field stddev 18022.421664878
field sum 1948846096
field sqrsum 81112923361616
field min 1
field max 62431
statistic Basic.rack[3].node[5].app 	"End-to-End Delay"
field count 62431
field mean 0.00036351180052034
field stddev 0.00024587305921636
field sum 22.694405218285
field sqrsum 0.012023799931375
field min 8.496e-007
field max 0.000901606515
statistic Basic.rack[3].node[5].app 	hops
field count 62431
field mean 4.9944418638177
field stddev 0.97519344940547
field sum 311808
field sqrsum 1616678
field min 3
field max 7
statistic Basic.rack[3].node[6].app 	throughput
field count 62781
field mean 31391
field stddev 18123.457961989
field sum 1970758371
field sqrsum 82484777779291
field min 1
field max 62781
statistic Basic.rack[3].node[6].app 	"End-to-End Delay"
field count 62781
field mean 0.00036394153450415
field stddev 0.00024760207210419
field sum 22.848613477705
field sqrsum 0.012164399482372
field min 8.496e-007
field max 0.000887123449
statistic Basic.rack[3].node[6].app 	hops
field count 62781
field mean 4.9915738838184
field stddev 0.97932223431291
field sum 313376
field sqrsum 1624450
field min 3
field max 7
statistic Basic.rack[3].node[7].app 	throughput
field count 62529
field mean 31265
field stddev 18050.711828069
field sum 1954969185
field sqrsum 81495497102305
field min 1
field max 62529
statistic Basic.rack[3].node[7].app 	"End-to-End Delay"
field count 62529
field mean 0.00036612080918545
field stddev 0.00024655464041131
field sum 22.893168077557
field sqrsum 0.012182691737985
field min 8.496e-007
field max 0.000899764216
statistic Basic.rack[3].node[7].app 	hops
field count 62529
field mean 4.9992963265045
field stddev 0.98264079065758
field sum 312601
field sqrsum 1623161
field min 3
field max 7
statistic Basic.rack[3].node[8].app 	throughput
field count 62041
field mean 31021
field stddev 17909.838362382
field sum 1924573861
field sqrsum 79602299464821
field min 1
field max 62041
statistic Basic.rack[3].node[8].app 	"End-to-End Delay"
field count 62041
field mean 0.00036213757709642
field stddev 0.0002459376614338
field sum 22.467377420639
field sqrsum 0.011888791701468
field min 8.496e-007
field max 0.000901383918
statistic Basic.rack[3].node[8].app 	hops
field count 62041
field mean 4.9968730355733
field stddev 0.97672291001827
field sum 310011
field sqrsum 1608271
field min 3
field max 7
statistic Basic.rack[3].node[9].app 	throughput
field count 63191
field mean 31596
field stddev 18241.814767177
field sum 1996582836
field sqrsum 84111376187396
field min 1
field max 63191
statistic Basic.rack[3].node[9].app 	"End-to-End Delay"
field count 63191
field mean 0.00036501314981063
field stddev 0.00024790301424609
field sum 23.065545949684
field sqrsum 0.0123026261828
field min 8.496e-007
field max 0.000910145752
statistic Basic.rack[3].node[9].app 	hops
field count 63191
field mean 5.0034498583659
field stddev 0.98114240388117
field sum 316173
field sqrsum 1642785
field min 3
field max 7
statistic Basic.rack[3].eps.queue[0] 	dropsum
field count 946460
field mean 473230.5
field stddev 273219.61222521
field sum 447893739030
field sqrsum 2.8260915479232e+017
field min 1
field max 946460
statistic Basic.rack[3].eps.queue[1] 	dropsum
field count 0
field mean nan
field stddev nan
field sum 0
field sqrsum 0
field min nan
field max nan
statistic Basic.rack[3].eps.queue[2] 	dropsum
field count 0
field mean nan
field stddev nan
field sum 0
field sqrsum 0
field min nan
field max nan
statistic Basic.rack[3].eps.queue[3] 	dropsum
field count 0
field mean nan
field stddev nan
field sum 0
field sqrsum 0
field min nan
field max nan
statistic Basic.rack[4].node[0].app 	throughput
field count 68916
field mean 34458.5
field stddev 19894.47991278
field sum 2374741986
field sqrsum 1.0910593738545e+014
field min 1
field max 68916
statistic Basic.rack[4].node[0].app 	"End-to-End Delay"
field count 68916
field mean 0.00027603556560744
field stddev 0.00027722438411383
field sum 19.023267039402
field sqrsum 0.010547447522558
field min 8.496e-007
field max 0.000901225553
statistic Basic.rack[4].node[0].app 	hops
field count 68916
field mean 5.547536130942
field stddev 1.0893965111674
field sum 382314
field sqrsum 2202688
field min 4
field max 8
statistic Basic.rack[4].node[1].app 	throughput
field count 69654
field mean 34827.5
field stddev 20107.522162116
field sum 2425874685
field sqrsum 1.1264872549756e+014
field min 1
field max 69654
statistic Basic.rack[4].node[1].app 	"End-to-End Delay"
field count 69654
field mean 0.000275219621628
field stddev 0.0002775782681897
field sum 19.170147524877
field sqrsum 0.010642743152178
field min 8.496e-007
field max 0.00090496174
statistic Basic.rack[4].node[1].app 	hops
field count 69654
field mean 5.548267149051
field stddev 1.0859653383932
field sum 386459
field sqrsum 2226321
field min 4
field max 8
statistic Basic.rack[4].node[2].app 	throughput
field count 69352
field mean 34676.5
field stddev 20020.342271466
field sum 2404884628
field sqrsum 1.1118984077558e+014
field min 1
field max 69352
statistic Basic.rack[4].node[2].app 	"End-to-End Delay"
field count 69352
field mean 0.00027496285587774
field stddev 0.00027723801582622
field sum 19.069223980833
field sqrsum 0.010573709769085
field min 8.496e-007
field max 0.00091714646
statistic Basic.rack[4].node[2].app 	hops
field count 69352
field mean 5.5460981658784
field stddev 1.0878197028978
field sum 384633
field sqrsum 2215279
field min 4
field max 8
statistic Basic.rack[4].node[3].app 	throughput
field count 69463
field mean 34732
field stddev 20052.385211407
field sum 2412588916
field sqrsum 1.1172458011104e+014
field min 1
field max 69463
statistic Basic.rack[4].node[3].app 	"End-to-End Delay"
field count 69463
field mean 0.00027535335290203
field stddev 0.00027760963126258
field sum 19.126869952634
field sqrsum 0.010619883184096
field min 8.496e-007
field max 0.00090181431
statistic Basic.rack[4].node[3].app 	hops
field count 69463
field mean 5.5446064811482
field stddev 1.0852065307548
field sum 385145
field sqrsum 2217281
field min 4
field max 8
statistic Basic.rack[4].node[4].app 	throughput
field count 69087
field mean 34544
field stddev 19943.843360797
field sum 2386541328
field sqrsum 1.099201159988e+014
field min 1
field max 69087
statistic Basic.rack[4].node[4].app 	"End-to-End Delay"
field count 69087
field mean 0.0002740740152232
field stddev 0.00027675588379247
field sum 18.934951489725
field sqrsum 0.010481138777047
field min 8.496e-007
field max 0.000914936308
statistic Basic.rack[4].node[4].app 	hops
field count 69087
field mean 5.5441978954072
field stddev 1.0842995538525
field sum 383032
field sqrsum 2204830
field min 4
field max 8
statistic Basic.rack[4].node[5].app 	throughput
field count 69283
field mean 34642
field stddev 20000.423687179
field sum 2400101686
field sqrsum 1.1085829677465e+014
field min 1
field max 69283
statistic Basic.rack[4].node[5].app 	"End-to-End Delay"
field count 69283
field mean 0.00027532361171249
field stddev 0.00027635343819226
field sum 19.075245790276
field sqrsum 0.010543016623359
field min 8.496e-007
field max 0.000924407138
statistic Basic.rack[4].node[5].app 	hops
field count 69283
field mean 5.5417779253208
field stddev 1.0845697043506
field sum 383951
field sqrsum 2209267
field min 4
field max 8
statistic Basic.rack[4].node[6].app 	throughput
field count 69265
field mean 34633
field stddev 19995.227534756
field sum 2398854745
field sqrsum 1.1077191555986e+014
field min 1
field max 69265
statistic Basic.rack[4].node[6].app 	"End-to-End Delay"
field count 69265
field mean 0.00027655535152929
field stddev 0.00027783033230278
field sum 19.155606423676
field sqrsum 0.010644052402128
field min 8.496e-007
field max 0.000914551791
statistic Basic.rack[4].node[6].app 	hops
field count 69265
field mean 5.5493828051686
field stddev 1.0882288244671
field sum 384378
field sqrsum 2215086
field min 4
field max 8
statistic Basic.rack[4].node[7].app 	throughput
field count 68837
field mean 34419
field stddev 19871.674577146
field sum 2369300703
field sqrsum 1.0873115809518e+014
field min 1
field max 68837
statistic Basic.rack[4].node[7].app 	"End-to-End Delay"
field count 68837
field mean 0.00027644297191184
field stddev 0.0002773290378058
field sum 19.029504857495
field sqrsum 0.010554845677512
field min 8.496e-007
field max 0.00090471095
statistic Basic.rack[4].node[7].app 	hops
field count 68837
field mean 5.5517236369975
field stddev 1.0874316185369
field sum 382164
field sqrsum 2203068
field min 4
field max 8
statistic Basic.rack[4].node[8].app 	throughput
field count 69167
field mean 34584
field stddev 19966.937371565
field sum 2392071528
field sqrsum 1.1030240494196e+014
field min 1
field max 69167
statistic Basic.rack[4].node[8].app 	"End-to-End Delay"
field count 69167
field mean 0.00027596546645465
field stddev 0.0002771634466042
field sum 19.087703418269
field sqrsum 0.010580849780221
field min 8.496e-007
field max 0.000903509716
statistic Basic.rack[4].node[8].app 	hops
field count 69167
field mean 5.5461130307806
field stddev 1.0827104809176
field sum 383608
field sqrsum 2208614
field min 4
field max 8
statistic Basic.rack[4].node[9].app 	throughput
field count 69268
field mean 34634.5
field stddev 19996.09356016
field sum 2399062546
field sqrsum 1.1078630931173e+014
field min 1
field max 69268
statistic Basic.rack[4].node[9].app 	"End-to-End Delay"
field count 69268
field mean 0.00027480243472497
field stddev 0.00027757038705031
field sum 19.035015048529
field sqrsum 0.010567566644681
field min 8.496e-007
field max 0.000922580699
statistic Basic.rack[4].node[9].app 	hops
field count 69268
field mean 5.5441618063175
field stddev 1.0877578989856
field sum 384033
field sqrsum 2211099
field min 4
field max 8
statistic Basic.rack[4].eps.queue[0] 	dropsum
field count 0
field mean nan
field stddev nan
field sum 0
field sqrsum 0
field min nan
field max nan
statistic Basic.rack[4].eps.queue[1] 	dropsum
field count 0
field mean nan
field stddev nan
field sum 0
field sqrsum 0
field min nan
field max nan
statistic Basic.rack[4].eps.queue[2] 	dropsum
field count 0
field mean nan
field stddev nan
field sum 0
field sqrsum 0
field min nan
field max nan
statistic Basic.rack[4].eps.queue[3] 	dropsum
field count 0
field mean nan
field stddev nan
field sum 0
field sqrsum 0
field min nan
field max nan
statistic Basic.rack[5].node[0].app 	throughput
field count 61896
field mean 30948.5
field stddev 17867.980467865
field sum 1915588356
field sqrsum 79045476451436
field min 1
field max 61896
statistic Basic.rack[5].node[0].app 	"End-to-End Delay"
field count 61896
field mean 0.00041416187342462
field stddev 0.0002927104968606
field sum 25.63496331749
field sqrsum 0.015920153060359
field min 9.4416e-006
field max 0.001023652073
statistic Basic.rack[5].node[0].app 	hops
field count 61896
field mean 6.0532344578002
field stddev 1.3365891343116
field sum 374671
field sqrsum 2378545
field min 4
field max 9
statistic Basic.rack[5].node[1].app 	throughput
field count 61389
field mean 30695
field stddev 17721.62217462
field sum 1884335355
field sqrsum 77118936850515
field min 1
field max 61389
statistic Basic.rack[5].node[1].app 	"End-to-End Delay"
field count 61389
field mean 0.00041003466105689
field stddev 0.00029270182556595
field sum 25.171617807621
field sqrsum 0.015580613307241
field min 9.4416e-006
field max 0.001017255757
statistic Basic.rack[5].node[1].app 	hops
field count 61389
field mean 6.0495691410513
field stddev 1.3257119729986
field sum 371377
field sqrsum 2354561
field min 4
field max 9
statistic Basic.rack[5].node[2].app 	throughput
field count 61124
field mean 30562.5
field stddev 17645.12326395
field sum 1868102250
field sqrsum 76124543986750
field min 1
field max 61124
statistic Basic.rack[5].node[2].app 	"End-to-End Delay"
field count 61124
field mean 0.00041308876569685
field stddev 0.00029286095123831
field sum 25.249637714454
field sqrsum 0.015672710827151
field min 9.4416e-006
field max 0.001008967364
statistic Basic.rack[5].node[2].app 	hops
field count 61124
field mean 6.0539558929389
field stddev 1.330464769497
field sum 370042
field sqrsum 2348414
field min 4
field max 9
statistic Basic.rack[5].node[3].app 	throughput
field count 61498
field mean 30749.5
field stddev 17753.087764292
field sum 1891032751
field sqrsum 77530451758249
field min 1
field max 61498
statistic Basic.rack[5].node[3].app 	"End-to-End Delay"
field count 61498
field mean 0.00041340425171217
field stddev 0.00029210998458727
field sum 25.423534671795
field sqrsum 0.01575762829252
field min 9.4416e-006
field max 0.001040504071
statistic Basic.rack[5].node[3].app 	hops
field count 61498
field mean 6.0525220332369
field stddev 1.3280197663711
field sum 372218
field sqrsum 2361316
field min 4
field max 9
statistic Basic.rack[5].node[4].app 	throughput
field count 61397
field mean 30699
field stddev 17723.931575697
field sum 1884826503
field sqrsum 77149090145295
field min 1
field max 61397
statistic Basic.rack[5].node[4].app 	"End-to-End Delay"
field count 61397
field mean 0.00041271864546291
field stddev 0.00029342442269019
field sum 25.339686675486
field sqrsum 0.015744227328022
field min 9.4416e-006
field max 0.001030660582
statistic Basic.rack[5].node[4].app 	hops
field count 61397
field mean 6.054318614916
field stddev 1.3285814968305
field sum 371717
field sqrsum 2358865
field min 4
field max 9
statistic Basic.rack[5].node[5].app 	throughput
field count 61426
field mean 30713.5
field stddev 17732.303154601
field sum 1886607451
field sqrsum 77258461725901
field min 1
field max 61426
statistic Basic.rack[5].node[5].app 	"End-to-End Delay"
field count 61426
field mean 0.00041309007797427
field stddev 0.00029210385382547
field sum 25.374471129647
field sqrsum 0.015723009585206
field min 9.4416e-006
field max 0.001052139688
statistic Basic.rack[5].node[5].app 	hops
field count 61426
field mean 6.0588838602546
field stddev 1.3255451237476
field sum 372173
field sqrsum 2362881
field min 4
field max 9
statistic Basic.rack[5].node[6].app 	throughput
field count 61856
field mean 30928.5
field stddev 17856.433462481
field sum 1913113296
field sqrsum 78892328396016
field min 1
field max 61856
statistic Basic.rack[5].node[6].app 	"End-to-End Delay"
field count 61856
field mean 0.00041292312243401
field stddev 0.00029291981648901
field sum 25.541772661278
field sqrsum 0.015854072398357
field min 9.4416e-006
field max 0.001032511332
statistic Basic.rack[5].node[6].app 	hops
field count 61856
field mean 6.0557747025349
field stddev 1.3252037042478
field sum 374586
field sqrsum 2377036
field min 4
field max 9
statistic Basic.rack[5].node[7].app 	throughput
field count 61119
field mean 30560
field stddev 17643.679888277
field sum 1867796640
field sqrsum 76105864492320
field min 1
field max 61119
statistic Basic.rack[5].node[7].app 	"End-to-End Delay"
field count 61119
field mean 0.00041327926898513
field stddev 0.0002920787128497
field sum 25.259215641102
field sqrsum 0.01565308519678
field min 9.4416e-006
field max 0.001027577047
statistic Basic.rack[5].node[7].app 	hops
field count 61119
field mean 6.051964200985
field stddev 1.3282108802598
field sum 369890
field sqrsum 2346382
field min 4
field max 9
statistic Basic.rack[5].node[8].app 	throughput
field count 61917
field mean 30959
field stddev 17874.042645692
field sum 1916888403
field sqrsum 79125958461835
field min 1
field max 61917
statistic Basic.rack[5].node[8].app 	"End-to-End Delay"
field count 61917
field mean 0.0004141612988515
field stddev 0.0002937004496972
field sum 25.643625140988
field sqrsum 0.015961468416949
field min 9.4416e-006
field max 0.001070740521
statistic Basic.rack[5].node[8].app 	hops
field count 61917
field mean 6.0583200090444
field stddev 1.3365365578243
field sum 375113
field sqrsum 2383157
field min 4
field max 9
statistic Basic.rack[5].node[9].app 	throughput
field count 61594
field mean 30797.5
field stddev 17780.800577214
field sum 1896941215
field sqrsum 77894097111545
field min 1
field max 61594
statistic Basic.rack[5].node[9].app 	"End-to-End Delay"
field count 61594
field mean 0.00041397422684317
field stddev 0.00029305125150132
field sum 25.498328528178
field sqrsum 0.015845198302994
field min 9.4416e-006
field max 0.001062665919
statistic Basic.rack[5].node[9].app 	hops
field count 61594
field mean 6.0501509887327
field stddev 1.3309288036771
field sum 372653
field sqrsum 2363711
field min 4
field max 9
statistic Basic.rack[5].eps.queue[0] 	dropsum
field count 0
field mean nan
field stddev nan
field sum 0
field sqrsum 0
field min nan
field max nan
statistic Basic.rack[5].eps.queue[1] 	dropsum
field count 0
field mean nan
field stddev nan
field sum 0
field sqrsum 0
field min nan
field max nan
statistic Basic.rack[5].eps.queue[2] 	dropsum
field count 0
field mean nan
field stddev nan
field sum 0
field sqrsum 0
field min nan
field max nan
statistic Basic.rack[5].eps.queue[3] 	dropsum
field count 0
field mean nan
field stddev nan
field sum 0
field sqrsum 0
field min nan
field max nan
statistic Basic.rack[6].node[0].app 	throughput
field count 54807
field mean 27404
field stddev 15821.562438647
field sum 1501931028
field sqrsum 54878056544740
field min 1
field max 54807
statistic Basic.rack[6].node[0].app 	"End-to-End Delay"
field count 54807
field mean 0.00052790322128194
field stddev 0.00018100244117065
field sum 28.932791848799
field sqrsum 0.017069261816257
field min 3.4634495e-005
field max 0.001040278141
statistic Basic.rack[6].node[0].app 	hops
field count 54807
field mean 5.7024467677486
field stddev 1.4976992286137
field sum 312534
field sqrsum 1905144
field min 3
field max 8
statistic Basic.rack[6].node[1].app 	throughput
field count 55192
field mean 27596.5
field stddev 15932.70236547
field sum 1523106028
field sqrsum 56042686300260
field min 1
field max 55192
statistic Basic.rack[6].node[1].app 	"End-to-End Delay"
field count 55192
field mean 0.00052810125306343
field stddev 0.00018119138522891
field sum 29.146964359077
field sqrsum 0.017204486486242
field min 1.5973221e-005
field max 0.001013129694
statistic Basic.rack[6].node[1].app 	hops
field count 55192
field mean 5.6953543991883
field stddev 1.5001808088496
field sum 314338
field sqrsum 1914476
field min 3
field max 8
statistic Basic.rack[6].node[2].app 	throughput
field count 55197
field mean 27599
field stddev 15934.145741143
field sum 1523382003
field sqrsum 56057918740395
field min 1
field max 55197
statistic Basic.rack[6].node[2].app 	"End-to-End Delay"
field count 55197
field mean 0.0005292773532767
field stddev 0.00018182223582751
field sum 29.214522068814
field sqrsum 0.017287327444884
field min 0.000108009138
field max 0.001058566561
statistic Basic.rack[6].node[2].app 	hops
field count 55197
field mean 5.7086254687755
field stddev 1.4982828505887
field sum 315099
field sqrsum 1922689
field min 3
field max 8
statistic Basic.rack[6].node[3].app 	throughput
field count 55194
field mean 27597.5
field stddev 15933.27971574
field sum 1523216415
field sqrsum 56048778945145
field min 1
field max 55194
statistic Basic.rack[6].node[3].app 	"End-to-End Delay"
field count 55194
field mean 0.00052958180596497
field stddev 0.00018196937421541
field sum 29.229738198431
field sqrsum 0.017307135247046
field min 0.000123821841
field max 0.001017561983
statistic Basic.rack[6].node[3].app 	hops
field count 55194
field mean 5.7094249374932
field stddev 1.5050977048382
field sum 315126
field sqrsum 1924218
field min 3
field max 8
statistic Basic.rack[6].node[4].app 	throughput
field count 55045
field mean 27523
field stddev 15890.267120683
field sum 1515003535
field sqrsum 55596084723895
field min 1
field max 55045
statistic Basic.rack[6].node[4].app 	"End-to-End Delay"
field count 55045
field mean 0.00052914827362457
field stddev 0.00018168254167577
field sum 29.126966721664
field sqrsum 0.017229406559948
field min 0.000125872957
field max 0.001028725642
statistic Basic.rack[6].node[4].app 	hops
field count 55045
field mean 5.7086202198201
field stddev 1.5077589202003
field sum 314231
field sqrsum 1918959
field min 3
field max 8
statistic Basic.rack[6].node[5].app 	throughput
field count 55350
field mean 27675.5
field stddev 15978.313036738
field sum 1531838925
field sqrsum 56525366945475
field min 1
field max 55350
statistic Basic.rack[6].node[5].app 	"End-to-End Delay"
field count 55350
field mean 0.00052760276143386
field stddev 0.00018061694906183
field sum 29.202812845364
field sqrsum 0.017213106471031
field min 5.9736269e-005
field max 0.001021467547
statistic Basic.rack[6].node[5].app 	hops
field count 55350
field mean 5.6989521228546
field stddev 1.5007188363709
field sum 315437
field sqrsum 1922315
field min 3
field max 8
statistic Basic.rack[6].node[6].app 	throughput
field count 55100
field mean 27550.5
field stddev 15906.144253087
field sum 1518032550
field sqrsum 55762901680850
field min 1
field max 55100
statistic Basic.rack[6].node[6].app 	"End-to-End Delay"
field count 55100
field mean 0.00053007481237
field stddev 0.0001822513387454
field sum 29.207122161587
field sqrsum 0.017312103415265
field min 0.000119702381
field max 0.00103623775
statistic Basic.rack[6].node[6].app 	hops
field count 55100
field mean 5.7135208711434
field stddev 1.5008719762421
field sum 314815
field sqrsum 1922819
field min 3
field max 8
statistic Basic.rack[6].node[7].app 	throughput
field count 55168
field mean 27584.5
field stddev 15925.77416224
field sum 1521781696
field sqrsum 55969608997184
field min 1
field max 55168
statistic Basic.rack[6].node[7].app 	"End-to-End Delay"
field count 55168
field mean 0.00052803251883327
field stddev 0.00018104222913318
field sum 29.130497998994
field sqrsum 0.017190019753617
field min 3.0751812e-005
field max 0.001038968058
statistic Basic.rack[6].node[7].app 	hops
field count 55168
field mean 5.695620649652
field stddev 1.4964133284326
field sum 314216
field sqrsum 1913188
field min 3
field max 8
statistic Basic.rack[6].node[8].app 	throughput
field count 55145
field mean 27573
field stddev 15919.134634144
field sum 1520513085
field sqrsum 55899636219245
field min 1
field max 55145
statistic Basic.rack[6].node[8].app 	"End-to-End Delay"
field count 55145
field mean 0.00052952587010168
field stddev 0.00018210319823216
field sum 29.200704106757
field sqrsum 0.017291190130835
field min 6.248056e-005
field max 0.001012686122
statistic Basic.rack[6].node[8].app 	hops
field count 55145
field mean 5.7048689817753
field stddev 1.5046095735372
field sum 314595
field sqrsum 1919561
field min 3
field max 8
statistic Basic.rack[6].node[9].app 	throughput
field count 55313
field mean 27657
field stddev 15967.632056758
field sum 1529791641
field sqrsum 56412086622969
field min 1
field max 55313
statistic Basic.rack[6].node[9].app 	"End-to-End Delay"
field count 55313
field mean 0.00052872359606349
field stddev 0.00018156494266377
field sum 29.24528826906
field sqrsum 0.01728607988224
field min 0.000292120186
field max 0.00103656412
statistic Basic.rack[6].node[9].app 	hops
field count 55313
field mean 5.702456926943
field stddev 1.499777223499
field sum 315420
field sqrsum 1923084
field min 3
field max 8
statistic Basic.rack[6].eps.queue[0] 	dropsum
field count 0
field mean nan
field stddev nan
field sum 0
field sqrsum 0
field min nan
field max nan
statistic Basic.rack[6].eps.queue[1] 	dropsum
field count 567034
field mean 283517.5
field stddev 163688.76060613
field sum 160764062095
field sqrsum 6.0772513045114e+016
field min 1
field max 567034
statistic Basic.rack[6].eps.queue[2] 	dropsum
field count 0
field mean nan
field stddev nan
field sum 0
field sqrsum 0
field min nan
field max nan
statistic Basic.rack[6].eps.queue[3] 	dropsum
field count 0
field mean nan
field stddev nan
field sum 0
field sqrsum 0
field min nan
field max nan
statistic Basic.rack[7].node[0].app 	throughput
field count 54109
field mean 27055
field stddev 15620.067194691
field sum 1463918995
field sqrsum 52807949906635
field min 1
field max 54109
statistic Basic.rack[7].node[0].app 	"End-to-End Delay"
field count 54109
field mean 0.00052800654505683
field stddev 0.00018013198686013
field sum 28.56990614648
field sqrsum 0.016840768535801
field min 3.9887631e-005
field max 0.001016092203
statistic Basic.rack[7].node[0].app 	hops
field count 54109
field mean 5.6800532258959
field stddev 1.5377815073487
field sum 307342
field sqrsum 1873672
field min 3
field max 8
statistic Basic.rack[7].node[1].app 	throughput
field count 53719
field mean 26860
field stddev 15507.483892194
field sum 1442892340
field sqrsum 51674303372420
field min 1
field max 53719
statistic Basic.rack[7].node[1].app 	"End-to-End Delay"
field count 53719
field mean 0.00052801512531972
field stddev 0.00017993241642236
field sum 28.36444451705
field sqrsum 0.016716012207989
field min 9.4416e-006
field max 0.001001838811
statistic Basic.rack[7].node[1].app 	hops
field count 53719
field mean 5.6818816433664
field stddev 1.5448220646254
field sum 305225
field sqrsum 1862449
field min 3
field max 8
statistic Basic.rack[7].node[2].app 	throughput
field count 53894
field mean 26947.5
field stddev 15558.002040751
field sum 1452308565
field sqrsum 52180962637595
field min 1
field max 53894
statistic Basic.rack[7].node[2].app 	"End-to-End Delay"
field count 53894
field mean 0.00052854284175601
field stddev 0.00018049699844907
field sum 28.485287913598
field sqrsum 0.016811484039534
field min 0.000184642106
field max 0.001026045605
statistic Basic.rack[7].node[2].app 	hops
field count 53894
field mean 5.6803725832189
field stddev 1.5454692741305
field sum 306138
field sqrsum 1867700
field min 3
field max 8
statistic Basic.rack[7].node[3].app 	throughput
field count 53850
field mean 26925.5
field stddev 15545.300334828
field sum 1449938175
field sqrsum 52053263795225
field min 1
field max 53850
statistic Basic.rack[7].node[3].app 	"End-to-End Delay"
field count 53850
field mean 0.00052766209241014
field stddev 0.00017955892637562
field sum 28.414603676286
field sqrsum 0.016729476812443
field min 3.5082924e-005
field max 0.001012954375
statistic Basic.rack[7].node[3].app 	hops
field count 53850
field mean 5.6845496750232
field stddev 1.5378771462352
field sum 306113
field sqrsum 1867471
field min 3
field max 8
statistic Basic.rack[7].node[4].app 	throughput
field count 54026
field mean 27013.5
field stddev 15596.107158519
field sum 1459431351
field sqrsum 52565311923201
field min 1
field max 54026
statistic Basic.rack[7].node[4].app 	"End-to-End Delay"
field count 54026
field mean 0.00052798325451383
field stddev 0.00018000564537323
field sum 28.524823308364
field sqrsum 0.016811148843368
field min 1.8198031e-005
field max 0.001025166991
statistic Basic.rack[7].node[4].app 	hops
field count 54026
field mean 5.6815607300189
field stddev 1.5393500963386
field sum 306952
field sqrsum 1871984
field min 3
field max 8
statistic Basic.rack[7].node[5].app 	throughput
field count 53831
field mean 26916
field stddev 15539.81550727
field sum 1448915196
field sqrsum 51998185582316
field min 1
field max 53831
statistic Basic.rack[7].node[5].app 	"End-to-End Delay"
field count 53831
field mean 0.00052870681841842
field stddev 0.00018033713922358
field sum 28.460816742282
field sqrsum 0.016798059341459
field min 0.000273512215
field max 0.001005794445
statistic Basic.rack[7].node[5].app 	hops
field count 53831
field mean 5.6901413683565
field stddev 1.5427498966528
field sum 306306
field sqrsum 1871044
field min 3
field max 8
statistic Basic.rack[7].node[6].app 	throughput
field count 54166
field mean 27083.5
field stddev 15636.521677364
field sum 1467004861
field sqrsum 52975012535571
field min 1
field max 54166
statistic Basic.rack[7].node[6].app 	"End-to-End Delay"
field count 54166
field mean 0.00052988089932653
field stddev 0.00018101622346269
field sum 28.701528792921
field sqrsum 0.016983209573372
field min 9.423633e-005
field max 0.001077738875
statistic Basic.rack[7].node[6].app 	hops
field count 54166
field mean 5.7022117195289
field stddev 1.5469672377739
field sum 308866
field sqrsum 1890842
field min 3
field max 8
statistic Basic.rack[7].node[7].app 	throughput
field count 53640
field mean 26820.5
field stddev 15484.67855656
field sum 1438651620
field sqrsum 51446661481740
field min 1
field max 53640
statistic Basic.rack[7].node[7].app 	"End-to-End Delay"
field count 53640
field mean 0.00052966940656005
field stddev 0.00018096664654974
field sum 28.411466967881
field sqrsum 0.016805304552499
field min 0.000177148119
field max 0.001024376215
statistic Basic.rack[7].node[7].app 	hops
field count 53640
field mean 5.6910141685309
field stddev 1.5461654202092
field sum 305266
field sqrsum 1865504
field min 3
field max 8
statistic Basic.rack[7].node[8].app 	throughput
field count 54362
field mean 27181.5
field stddev 15693.102003747
field sum 1477640703
field sqrsum 53552161811225
field min 1
field max 54362
statistic Basic.rack[7].node[8].app 	"End-to-End Delay"
field count 54362
field mean 0.00052729290299566
field stddev 0.00017962766051284
field sum 28.66469679265
field sqrsum 0.016868708452846
field min 0.000126711821
field max 0.001031116186
statistic Basic.rack[7].node[8].app 	hops
field count 54362
field mean 5.6829034987675
field stddev 1.5430390916551
field sum 308934
field sqrsum 1885074
field min 3
field max 8
statistic Basic.rack[7].node[9].app 	throughput
field count 53980
field mean 26990.5
field stddev 15582.828102327
field sum 1456947190
field sqrsum 52431158526530
field min 1
field max 53980
statistic Basic.rack[7].node[9].app 	"End-to-End Delay"
field count 53980
field mean 0.00052877354885104
field stddev 0.00018044672171903
field sum 28.543196166979
field sqrsum 0.016850498397832
field min 8.3038244e-005
field max 0.000991366064
statistic Basic.rack[7].node[9].app 	hops
field count 53980
field mean 5.6892182289737
field stddev 1.5433990188831
field sum 307104
field sqrsum 1875764
field min 3
field max 8
statistic Basic.rack[7].eps.queue[0] 	dropsum
field count 539300
field mean 269650.5
field stddev 155682.6444234
field sum 145422514650
field sqrsum 5.2284289907819e+016
field min 1
field max 539300
statistic Basic.rack[7].eps.queue[1] 	dropsum
field count 0
field mean nan
field stddev nan
field sum 0
field sqrsum 0
field min nan
field max nan
statistic Basic.rack[7].eps.queue[2] 	dropsum
field count 0
field mean nan
field stddev nan
field sum 0
field sqrsum 0
field min nan
field max nan
statistic Basic.rack[7].eps.queue[3] 	dropsum
field count 0
field mean nan
field stddev nan
field sum 0
field sqrsum 0
field min nan
field max nan
statistic Basic.rack[8].node[0].app 	throughput
field count 61427
field mean 30714
field stddev 17732.591829735
field sum 1886668878
field sqrsum 77262235002230
field min 1
field max 61427
statistic Basic.rack[8].node[0].app 	"End-to-End Delay"
field count 61427
field mean 0.00041328256336157
field stddev 0.00029103426471313
field sum 25.386708019611
field sqrsum 0.01569472390494
field min 9.4416e-006
field max 0.001016517205
statistic Basic.rack[8].node[0].app 	hops
field count 61427
field mean 6.0396568284305
field stddev 1.3170659743074
field sum 370998
field sqrsum 2347254
field min 4
field max 9
statistic Basic.rack[8].node[1].app 	throughput
field count 61286
field mean 30643.5
field stddev 17691.888635756
field sum 1878017541
field sqrsum 76731414684331
field min 1
field max 61286
statistic Basic.rack[8].node[1].app 	"End-to-End Delay"
field count 61286
field mean 0.0004111087583304
field stddev 0.00029170773355105
field sum 25.195211363037
field sqrsum 0.01557292118947
field min 9.4416e-006
field max 0.001022996063
statistic Basic.rack[8].node[1].app 	hops
field count 61286
field mean 6.0390953888327
field stddev 1.3124710275763
field sum 370112
field sqrsum 2340710
field min 4
field max 9
statistic Basic.rack[8].node[2].app 	throughput
field count 61339
field mean 30670
field stddev 17707.18841789
field sum 1881267130
field sqrsum 76930656747090
field min 1
field max 61339
statistic Basic.rack[8].node[2].app 	"End-to-End Delay"
field count 61339
field mean 0.00041134071840583
field stddev 0.00029129964583451
field sum 25.231228326295
field sqrsum 0.01558349724294
field min 9.4416e-006
field max 0.001000866551
statistic Basic.rack[8].node[2].app 	hops
field count 61339
field mean 6.036518365151
field stddev 1.31201491496
field sum 370274
field sqrsum 2340752
field min 4
field max 9
statistic Basic.rack[8].node[3].app 	throughput
field count 61271
field mean 30636
field stddev 17687.558508737
field sum 1877098356
field sqrsum 76675087946436
field min 1
field max 61271
statistic Basic.rack[8].node[3].app 	"End-to-End Delay"
field count 61271
field mean 0.00041194833977455
field stddev 0.00029160661911336
field sum 25.240486726326
field sqrsum 0.01560783553445
field min 9.4416e-006
field max 0.001014693554
statistic Basic.rack[8].node[3].app 	hops
field count 61271
field mean 6.0306833575427
field stddev 1.3186482789686
field sum 369506
field sqrsum 2334912
field min 4
field max 9
statistic Basic.rack[8].node[4].app 	throughput
field count 61668
field mean 30834.5
field stddev 17802.162537175
field sum 1901501946
field sqrsum 78175181837934
field min 1
field max 61668
statistic Basic.rack[8].node[4].app 	"End-to-End Delay"
field count 61668
field mean 0.00040997848044223
field stddev 0.00029119859152022
field sum 25.282552931911
field sqrsum 0.015594455779972
field min 9.4416e-006
field max 0.00104330845
statistic Basic.rack[8].node[4].app 	hops
field count 61668
field mean 6.0281669585522
field stddev 1.3164786956177
field sum 371745
field sqrsum 2347817
field min 4
field max 9
statistic Basic.rack[8].node[5].app 	throughput
field count 61369
field mean 30685
field stddev 17715.848671928
field sum 1883107765
field sqrsum 77043587989445
field min 1
field max 61369
statistic Basic.rack[8].node[5].app 	"End-to-End Delay"
field count 61369
field mean 0.00041247221959679
field stddev 0.00029137690927096
field sum 25.313007644435
field sqrsum 0.015651086531603
field min 9.4416e-006
field max 0.001009939372
statistic Basic.rack[8].node[5].app 	hops
field count 61369
field mean 6.0361583209764
field stddev 1.318883319911
field sum 370433
field sqrsum 2342739
field min 4
field max 9
statistic Basic.rack[8].node[6].app 	throughput
field count 61130
field mean 30565.5
field stddev 17646.855314758
field sum 1868469015
field sqrsum 76146963414305
field min 1
field max 61130
statistic Basic.rack[8].node[6].app 	"End-to-End Delay"
field count 61130
field mean 0.00041203322920863
field stddev 0.00029245194478342
field sum 25.187591301523
field sqrsum 0.015606374250479
field min 9.4416e-006
field max 0.001028344478
statistic Basic.rack[8].node[6].app 	hops
field count 61130
field mean 6.0369703909701
field stddev 1.3158372808907
field sum 369040
field sqrsum 2333724
field min 4
field max 9
statistic Basic.rack[8].node[7].app 	throughput
field count 61051
field mean 30526
field stddev 17624.049979124
field sum 1863642826
field sqrsum 75852126661026
field min 1
field max 61051
statistic Basic.rack[8].node[7].app 	"End-to-End Delay"
field count 61051
field mean 0.00041007100664587
field stddev 0.00029199466765405
field sum 25.035245026737
field sqrsum 0.015471405216279
field min 9.4416e-006
field max 0.001042945086
statistic Basic.rack[8].node[7].app 	hops
field count 61051
field mean 6.033807800036
field stddev 1.3130368841521
field sum 368370
field sqrsum 2327928
field min 4
field max 9
statistic Basic.rack[8].node[8].app 	throughput
field count 60928
field mean 30464.5
field stddev 17588.542937568
field sum 1856141056
field sqrsum 75394593553664
field min 1
field max 60928
statistic Basic.rack[8].node[8].app 	"End-to-End Delay"
field count 60928
field mean 0.00041012245916601
field stddev 0.00029157900337896
field sum 24.987941192067
field sqrsum 0.015428026782075
field min 9.4416e-006
field max 0.001007119261
statistic Basic.rack[8].node[8].app 	hops
field count 60928
field mean 6.0336298581933
field stddev 1.3107344219971
field sum 367617
field sqrsum 2322739
field min 4
field max 9
statistic Basic.rack[8].node[9].app 	throughput
field count 61221
field mean 30611
field stddev 17673.124752007
field sum 1874036031
field sqrsum 76487531247911
field min 1
field max 61221
statistic Basic.rack[8].node[9].app 	"End-to-End Delay"
field count 61221
field mean 0.00041181530125154
field stddev 0.00029221409166609
field sum 25.21174455792
field sqrsum 0.01561010137424
field min 9.4416e-006
field max 0.00101580205
statistic Basic.rack[8].node[9].app 	hops
field count 61221
field mean 6.0420117280018
field stddev 1.3164946690296
field sum 369898
field sqrsum 2341032
field min 4
field max 9
statistic Basic.rack[8].eps.queue[0] 	dropsum
field count 0
field mean nan
field stddev nan
field sum 0
field sqrsum 0
field min nan
field max nan
statistic Basic.rack[8].eps.queue[1] 	dropsum
field count 0
field mean nan
field stddev nan
field sum 0
field sqrsum 0
field min nan
field max nan
statistic Basic.rack[8].eps.queue[2] 	dropsum
field count 0
field mean nan
field stddev nan
field sum 0
field sqrsum 0
field min nan
field max nan
statistic Basic.rack[8].eps.queue[3] 	dropsum
field count 0
field mean nan
field stddev nan
field sum 0
field sqrsum 0
field min nan
field max nan
statistic Basic.rack[9].node[0].app 	throughput
field count 70636
field mean 35318.5
field stddev 20391.001144296
field sum 2494757566
field sqrsum 1.1748062854051e+014
field min 1
field max 70636
statistic Basic.rack[9].node[0].app 	"End-to-End Delay"
field count 70636
field mean 0.00030183985367268
field stddev 0.00029912672001104
field sum 21.320759904024
field sqrsum 0.012755648437927
field min 8.496e-007
field max 0.000920735776
statistic Basic.rack[9].node[0].app 	hops
field count 70636
field mean 5.642816694037
field stddev 1.1482596615967
field sum 398586
field sqrsum 2342280
field min 4
field max 8
statistic Basic.rack[9].node[1].app 	throughput
field count 71798
field mean 35899.5
field stddev 20726.441650703
field sum 2577512301
field sqrsum 1.233743446289e+014
field min 1
field max 71798
statistic Basic.rack[9].node[1].app 	"End-to-End Delay"
field count 71798
field mean 0.00029994521870256
field stddev 0.00029880020184345
field sum 21.535466812406
field sqrsum 0.012869608510864
field min 8.496e-007
field max 0.000907034673
statistic Basic.rack[9].node[1].app 	hops
field count 71798
field mean 5.6388896626647
field stddev 1.1426793114436
field sum 404861
field sqrsum 2376713
field min 4
field max 8
statistic Basic.rack[9].node[2].app 	throughput
field count 70951
field mean 35476
field stddev 20481.933811695
field sum 2517057676
field sqrsum 1.1905934513248e+014
field min 1
field max 70951
statistic Basic.rack[9].node[2].app 	"End-to-End Delay"
field count 70951
field mean 0.00030137661762623
field stddev 0.0003004384687037
field sum 21.382972397199
field sqrsum 0.012848507149058
field min 8.496e-007
field max 0.000915633342
statistic Basic.rack[9].node[2].app 	hops
field count 70951
field mean 5.6427534495638
field stddev 1.1497456389721
field sum 400359
field sqrsum 2352917
field min 4
field max 8
statistic Basic.rack[9].node[3].app 	throughput
field count 71585
field mean 35793
field stddev 20664.953847033
field sum 2562241905
field sqrsum 1.2227957859358e+014
field min 1
field max 71585
statistic Basic.rack[9].node[3].app 	"End-to-End Delay"
field count 71585
field mean 0.0002995508603003
field stddev 0.00029886736742827
field sum 21.443348334597
field sqrsum 0.012817378251341
field min 8.496e-007
field max 0.000905093945
statistic Basic.rack[9].node[3].app 	hops
field count 71585
field mean 5.6396591464692
field stddev 1.1436546756042
field sum 403715
field sqrsum 2370443
field min 4
field max 8
statistic Basic.rack[9].node[4].app 	throughput
field count 71296
field mean 35648.5
field stddev 20581.526733133
field sum 2541595456
field sqrsum 1.2080457361914e+014
field min 1
field max 71296
statistic Basic.rack[9].node[4].app 	"End-to-End Delay"
field count 71296
field mean 0.000298907026823
field stddev 0.00029905146313347
field sum 21.310875384373
field sqrsum 0.012746008984292
field min 8.496e-007
field max 0.000908345485
statistic Basic.rack[9].node[4].app 	hops
field count 71296
field mean 5.6320550942549
field stddev 1.1469288127378
field sum 401543
field sqrsum 2355297
field min 4
field max 8
statistic Basic.rack[9].node[5].app 	throughput
field count 71276
field mean 35638.5
field stddev 20575.753230441
field sum 2540169726
field sqrsum 1.2070293831683e+014
field min 1
field max 71276
statistic Basic.rack[9].node[5].app 	"End-to-End Delay"
field count 71276
field mean 0.00029851795678761
field stddev 0.00029820108522964
field sum 21.277165887994
field sqrsum 0.012689666149585
field min 8.496e-007
field max 0.000907648376
statistic Basic.rack[9].node[5].app 	hops
field count 71276
field mean 5.631025871261
field stddev 1.1407895964543
field sum 401357
field sqrsum 2352809
field min 4
field max 8
statistic Basic.rack[9].node[6].app 	throughput
field count 70731
field mean 35366
field stddev 20418.425282083
field sum 2501472546
field sqrsum 1.1795527025827e+014
field min 1
field max 70731
statistic Basic.rack[9].node[6].app 	"End-to-End Delay"
field count 70731
field mean 0.00029660130802357
field stddev 0.00029774638912806
field sum 20.978907117815
field sqrsum 0.012492791774699
field min 8.496e-007
field max 0.000921916932
statistic Basic.rack[9].node[6].app 	hops
field count 70731
field mean 5.6224427761519
field stddev 1.1389306099217
field sum 397681
field sqrsum 2327687
field min 4
field max 8
statistic Basic.rack[9].node[7].app 	throughput
field count 71160
field mean 35580.5
field stddev 20542.266914827
field sum 2531908380
field sqrsum 1.2011457751666e+014
field min 1
field max 71160
statistic Basic.rack[9].node[7].app 	"End-to-End Delay"
field count 71160
field mean 0.00029989242976849
field stddev 0.00029918710637653
field sum 21.340345302325
field sqrsum 0.012769458207987
field min 8.496e-007
field max 0.000924299579
statistic Basic.rack[9].node[7].app 	hops
field count 71160
field mean 5.6396571107364
field stddev 1.1479470972863
field sum 401318
field sqrsum 2357068
field min 4
field max 8
statistic Basic.rack[9].node[8].app 	throughput
field count 70686
field mean 35343.5
field stddev 20405.434901026
field sum 2498290641
field sqrsum 1.1773028093003e+014
field min 1
field max 70686
statistic Basic.rack[9].node[8].app 	"End-to-End Delay"
field count 70686
field mean 0.00029997291390067
field stddev 0.00029928824932966
field sum 21.203885391982
field sqrsum 0.012692091037613
field min 8.496e-007
field max 0.000919140233
statistic Basic.rack[9].node[8].app 	hops
field count 70686
field mean 5.6398438163144
field stddev 1.145514757002
field sum 398658
field sqrsum 2341122
field min 4
field max 8
statistic Basic.rack[9].node[9].app 	throughput
field count 71462
field mean 35731.5
field stddev 20629.446805477
field sum 2553444453
field sqrsum 1.2165034948168e+014
field min 1
field max 71462
statistic Basic.rack[9].node[9].app 	"End-to-End Delay"
field count 71462
field mean 0.0002984333275808
field stddev 0.00029880795273876
field sum 21.326642455579
field sqrsum 0.012745061484957
field min 8.496e-007
field max 0.000900093717
statistic Basic.rack[9].node[9].app 	hops
field count 71462
field mean 5.6315104531079
field stddev 1.1426657978677
field sum 402439
field sqrsum 2359645
field min 4
field max 8
statistic Basic.rack[9].eps.queue[0] 	dropsum
field count 0
field mean nan
field stddev nan
field sum 0
field sqrsum 0
field min nan
field max nan
statistic Basic.rack[9].eps.queue[1] 	dropsum
field count 0
field mean nan
field stddev nan
field sum 0
field sqrsum 0
field min nan
field max nan
statistic Basic.rack[9].eps.queue[2] 	dropsum
field count 0
field mean nan
field stddev nan
field sum 0
field sqrsum 0
field min nan
field max nan
statistic Basic.rack[9].eps.queue[3] 	dropsum
field count 0
field mean nan
field stddev nan
field sum 0
field sqrsum 0
field min nan
field max nan
statistic Basic.rack[10].node[0].app 	throughput
field count 64093
field mean 32047
field stddev 18502.19973859
field sum 2053988371
field sqrsum 87764869104459
field min 1
field max 64093
statistic Basic.rack[10].node[0].app 	"End-to-End Delay"
field count 64093
field mean 0.00038886450347951
field stddev 0.0002670350256686
field sum 24.923492621512
field sqrsum 0.014262115007859
field min 8.496e-007
field max 0.000904157563
statistic Basic.rack[10].node[0].app 	hops
field count 64093
field mean 5.1029129546128
field stddev 1.0205495317129
field sum 327061
field sqrsum 1735717
field min 3
field max 7
statistic Basic.rack[10].node[1].app 	throughput
field count 63632
field mean 31816.5
field stddev 18369.120501537
field sum 2024547528
field sqrsum 85884680383640
field min 1
field max 63632
statistic Basic.rack[10].node[1].app 	"End-to-End Delay"
field count 63632
field mean 0.00038798389372152
field stddev 0.00026584087453125
field sum 24.688191125287
field sqrsum 0.014075510502568
field min 8.496e-007
field max 0.00090736668
statistic Basic.rack[10].node[1].app 	hops
field count 63632
field mean 5.102574176515
field stddev 1.0181633636745
field sum 324687
field sqrsum 1722703
field min 3
field max 7
statistic Basic.rack[10].node[2].app 	throughput
field count 64100
field mean 32050.5
field stddev 18504.220464532
field sum 2054437050
field sqrsum 87793628082350
field min 1
field max 64100
statistic Basic.rack[10].node[2].app 	"End-to-End Delay"
field count 64100
field mean 0.00038698114446555
field stddev 0.00026617782802833
field sum 24.805491360242
field sqrsum 0.014140712361162
field min 8.496e-007
field max 0.000901626786
statistic Basic.rack[10].node[2].app 	hops
field count 64100
field mean 5.0960686427457
field stddev 1.0185291672706
field sum 326658
field sqrsum 1731168
field min 3
field max 7
statistic Basic.rack[10].node[3].app 	throughput
field count 63283
field mean 31642
field stddev 18268.372879561
field sum 2002400686
field sqrsum 84479282541654
field min 1
field max 63283
statistic Basic.rack[10].node[3].app 	"End-to-End Delay"
field count 63283
field mean 0.00038792315600036
field stddev 0.00026772248568718
field sum 24.548941081171
field sqrsum 0.014058860892128
field min 8.496e-007
field max 0.00090050762
statistic Basic.rack[10].node[3].app 	hops
field count 63283
field mean 5.1043724222935
field stddev 1.0193415709403
field sum 323020
field sqrsum 1714568
field min 3
field max 7
statistic Basic.rack[10].node[4].app 	throughput
field count 63763
field mean 31882
field stddev 18406.93694417
field sum 2032891966
field sqrsum 86416204582694
field min 1
field max 63763
statistic Basic.rack[10].node[4].app 	"End-to-End Delay"
field count 63763
field mean 0.00038654072556974
field stddev 0.00026663339123154
field sum 24.646996284503
field sqrsum 0.014060122986437
field min 8.496e-007
field max 0.000904744604
statistic Basic.rack[10].node[4].app 	hops
field count 63763
field mean 5.1002619073758
field stddev 1.0137539884913
field sum 325208
field sqrsum 1724174
field min 3
field max 7
statistic Basic.rack[10].node[5].app 	throughput
field count 64134
field mean 32067.5
field stddev 18514.035419108
field sum 2056617045
field sqrsum 87933403915035
field min 1
field max 64134
statistic Basic.rack[10].node[5].app 	"End-to-End Delay"
field count 64134
field mean 0.00038913030764433
field stddev 0.00026683830881353
field sum 24.956483150462
field sqrsum 0.014277765638135
field min 8.496e-007
field max 0.000904189088
statistic Basic.rack[10].node[5].app 	hops
field count 64134
field mean 5.1065269591792
field stddev 1.017568283962
field sum 327502
field sqrsum 1738804
field min 3
field max 7
statistic Basic.rack[10].node[6].app 	throughput
field count 63413
field mean 31707
field stddev 18305.900647059
field sum 2010635991
field sqrsum 85000976943519
field min 1
field max 63413
statistic Basic.rack[10].node[6].app 	"End-to-End Delay"
field count 63413
field mean 0.00038802895655848
field stddev 0.00026661701297864
field sum 24.606080222243
field sqrsum 0.014055490293262
field min 8.496e-007
field max 0.000903074495
statistic Basic.rack[10].node[6].app 	hops
field count 63413
field mean 5.1051519404539
field stddev 1.0138046625103
field sum 323733
field sqrsum 1717881
field min 3
field max 7
statistic Basic.rack[10].node[7].app 	throughput
field count 63849
field mean 31925
field stddev 18431.763005746
field sum 2038379325
field sqrsum 86766333807725
field min 1
field max 63849
statistic Basic.rack[10].node[7].app 	"End-to-End Delay"
field count 63849
field mean 0.00038888727282668
field stddev 0.00026690546105492
field sum 24.830063482711
field sqrsum 0.014204533025103
field min 8.496e-007
field max 0.000911583825
statistic Basic.rack[10].node[7].app 	hops
field count 63849
field mean 5.1077698945951
field stddev 1.016261678136
field sum 326126
field sqrsum 1731718
field min 3
field max 7
statistic Basic.rack[10].node[8].app 	throughput
field count 63635
field mean 31818
field stddev 18369.986526941
field sum 2024738430
field sqrsum 85896828241510
field min 1
field max 63635
statistic Basic.rack[10].node[8].app 	"End-to-End Delay"
field count 63635
field mean 0.00038811758408235
field stddev 0.00026644158075092
field sum 24.697862463081
field sqrsum 0.014103123383726
field min 8.496e-007
field max 0.000895630619
statistic Basic.rack[10].node[8].app 	hops
field count 63635
field mean 5.1006050129646
field stddev 1.0156391466685
field sum 324577
field sqrsum 1721179
field min 3
field max 7
statistic Basic.rack[10].node[9].app 	throughput
field count 63766
field mean 31883.5
field stddev 18407.802969574
field sum 2033083261
field sqrsum 86428402508371
field min 1
field max 63766
statistic Basic.rack[10].node[9].app 	"End-to-End Delay"
field count 63766
field mean 0.00038915888205852
field stddev 0.00026758247469919
field sum 24.815105273344
field sqrsum 0.014222616905892
field min 8.496e-007
field max 0.00089457762
statistic Basic.rack[10].node[9].app 	hops
field count 63766
field mean 5.1070633252831
field stddev 1.0184072252962
field sum 325657
field sqrsum 1729285
field min 3
field max 7
statistic Basic.rack[10].eps.queue[0] 	dropsum
field count 0
field mean nan
field stddev nan
field sum 0
field sqrsum 0
field min nan
field max nan
statistic Basic.rack[10].eps.queue[1] 	dropsum
field count 956106
field mean 478053.5
field stddev 276004.17257352
field sum 457069819671
field sqrsum 2.913382836937e+017
field min 1
field max 956106
statistic Basic.rack[10].eps.queue[2] 	dropsum
field count 0
field mean nan
field stddev nan
field sum 0
field sqrsum 0
field min nan
field max nan
statistic Basic.rack[10].eps.queue[3] 	dropsum
field count 0
field mean nan
field stddev nan
field sum 0
field sqrsum 0
field min nan
field max nan
statistic Basic.rack[11].node[0].app 	throughput
field count 62441
field mean 31221
field stddev 18025.308416224
field sum 1949470461
field sqrsum 81151906527021
field min 1
field max 62441
statistic Basic.rack[11].node[0].app 	"End-to-End Delay"
field count 62441
field mean 0.00036417611006469
field stddev 0.00024729123083152
field sum 22.73952048855
field sqrsum 0.012099580491971
field min 8.496e-007
field max 0.000894419357
statistic Basic.rack[11].node[0].app 	hops
field count 62441
field mean 4.9938181643471
field stddev 0.9819121174184
field sum 311819
field sqrsum 1617369
field min 3
field max 7
statistic Basic.rack[11].node[1].app 	throughput
field count 62057
field mean 31029
field stddev 17914.457164536
field sum 1925566653
field sqrsum 79663901712365
field min 1
field max 62057
statistic Basic.rack[11].node[1].app 	"End-to-End Delay"
field count 62057
field mean 0.00036350983011494
field stddev 0.00024778437161596
field sum 22.558329527443
field sqrsum 0.012010232650168
field min 8.496e-007
field max 0.000899781824
statistic Basic.rack[11].node[1].app 	hops
field count 62057
field mean 4.9947628792884
field stddev 0.97944665297918
field sum 309960
field sqrsum 1607708
field min 3
field max 7
statistic Basic.rack[11].node[2].app 	throughput
field count 62365
field mean 31183
field stddev 18003.369105994
field sum 1944727795
field sqrsum 80855947532715
field min 1
field max 62365
statistic Basic.rack[11].node[2].app 	"End-to-End Delay"
field count 62365
field mean 0.00036364818155519
field stddev 0.00024735890536105
field sum 22.67891884269
field sqrsum 0.012062977996404
field min 8.496e-007
field max 0.00089864545
statistic Basic.rack[11].node[2].app 	hops
field count 62365
field mean 4.9972741120821
field stddev 0.97788004593865
field sum 311655
field sqrsum 1617061
field min 3
field max 7
statistic Basic.rack[11].node[3].app 	throughput
field count 62442
field mean 31221.5
field stddev 18025.597091359
field sum 1949532903
field sqrsum 81155805530385
field min 1
field max 62442
statistic Basic.rack[11].node[3].app 	"End-to-End Delay"
field count 62442
field mean 0.00036338821410992
field stddev 0.00024799433796229
field sum 22.690686865452
field sqrsum 0.012085724085491
field min 8.496e-007
field max 0.000898183585
statistic Basic.rack[11].node[3].app 	hops
field count 62442
field mean 4.9985746773005
[...]
field count 63415
field mean 6.1320192383505
field stddev 1.3640187381161
field sum 388862
field sqrsum 2502494
field min 4
field max 9
statistic Basic.rack[13].node[2].app 	throughput
field count 63523
field mean 31762
field stddev 18337.654911866
field sum 2017617526
field sqrsum 85444084608574
field min 1
field max 63523
statistic Basic.rack[13].node[2].app 	"End-to-End Delay"
field count 63523
field mean 0.00042785090355203
field stddev 0.00030138029023146
field sum 27.178372946335
field sqrsum 0.017397999721999
field min 9.4416e-006
field max 0.001023206275
statistic Basic.rack[13].node[2].app 	hops
field count 63523
field mean 6.1370684633912
field stddev 1.3625861168415
field sum 389845
field sqrsum 2510443
field min 4
field max 9
statistic Basic.rack[13].node[3].app 	throughput
field count 63069
field mean 31535
field stddev 18206.596400755
field sum 1988880915
field sqrsum 83625149912395
field min 1
field max 63069
statistic Basic.rack[13].node[3].app 	"End-to-End Delay"
field count 63069
field mean 0.00042894386572391
field stddev 0.00030080613686575
field sum 27.053060667341
field sqrsum 0.017310910271381
field min 9.4416e-006
field max 0.001026277369
statistic Basic.rack[13].node[3].app 	hops
field count 63069
field mean 6.1356133758265
field stddev 1.3651348817356
field sum 386967
field sqrsum 2491813
field min 4
field max 9
statistic Basic.rack[13].node[4].app 	throughput
field count 62853
field mean 31427
field stddev 18144.242571681
field sum 1975281231
field sqrsum 82768892568439
field min 1
field max 62853
statistic Basic.rack[13].node[4].app 	"End-to-End Delay"
field count 62853
field mean 0.00042769984275384
field stddev 0.00030170819096162
field sum 26.882218216607
field sqrsum 0.017218801831988
field min 9.4416e-006
field max 0.001014574405
statistic Basic.rack[13].node[4].app 	hops
field count 62853
field mean 6.1354271076957
field stddev 1.3616729856508
field sum 385630
field sqrsum 2482542
field min 4
field max 9
statistic Basic.rack[13].node[5].app 	throughput
field count 62627
field mean 31314
field stddev 18079.00199126
field sum 1961101878
field sqrsum 81879271909630
field min 1
field max 62627
statistic Basic.rack[13].node[5].app 	"End-to-End Delay"
field count 62627
field mean 0.00042580032753883
field stddev 0.00030043810171509
field sum 26.666597112774
field sqrsum 0.017007459739774
field min 9.4416e-006
field max 0.001025047543
statistic Basic.rack[13].node[5].app 	hops
field count 62627
field mean 6.1224711386463
field stddev 1.3584351747799
field sum 383432
field sqrsum 2463118
field min 4
field max 9
statistic Basic.rack[13].node[6].app 	throughput
field count 63068
field mean 31534.5
field stddev 18206.307725621
field sum 1988817846
field sqrsum 83621172213634
field min 1
field max 63068
statistic Basic.rack[13].node[6].app 	"End-to-End Delay"
field count 63068
field mean 0.00042596006513892
field stddev 0.00030171435067229
field sum 26.864449388181
field sqrsum 0.017184269337422
field min 9.4416e-006
field max 0.001028948772
statistic Basic.rack[13].node[6].app 	hops
field count 63068
field mean 6.1247542335257
field stddev 1.3607675854783
field sum 386276
field sqrsum 2482626
field min 4
field max 9
statistic Basic.rack[13].node[7].app 	throughput
field count 62942
field mean 31471.5
field stddev 18169.934658661
field sum 1980879153
field sqrsum 83120990725135
field min 1
field max 62942
statistic Basic.rack[13].node[7].app 	"End-to-End Delay"
field count 62942
field mean 0.00042767067180126
field stddev 0.00030113576459117
field sum 26.918447424515
field sqrsum 0.017219893380817
field min 9.4416e-006
field max 0.001030002464
statistic Basic.rack[13].node[7].app 	hops
field count 62942
field mean 6.1285628038512
field stddev 1.3676769300948
field sum 385744
field sqrsum 2481790
field min 4
field max 9
statistic Basic.rack[13].node[8].app 	throughput
field count 62735
field mean 31368
field stddev 18110.178905798
field sum 1967871480
field sqrsum 82303600822360
field min 1
field max 62735
statistic Basic.rack[13].node[8].app 	"End-to-End Delay"
field count 62735
field mean 0.00042609171895318
field stddev 0.00030130045078107
field sum 26.730863988528
field sqrsum 0.017084915367554
field min 9.4416e-006
field max 0.001038063511
statistic Basic.rack[13].node[8].app 	hops
field count 62735
field mean 6.1258468159719
field stddev 1.364508752629
field sum 384305
field sqrsum 2470997
field min 4
field max 9
statistic Basic.rack[13].node[9].app 	throughput
field count 63026
field mean 31513.5
field stddev 18194.183369967
field sum 1986169851
field sqrsum 83454222742701
field min 1
field max 63026
statistic Basic.rack[13].node[9].app 	"End-to-End Delay"
field count 63026
field mean 0.00042828489386937
field stddev 0.00030081653230592
field sum 26.993083721011
field sqrsum 0.017263899186152
field min 9.4416e-006
field max 0.001045951018
statistic Basic.rack[13].node[9].app 	hops
field count 63026
field mean 6.1332941960461
field stddev 1.3677488574562
field sum 386557
field sqrsum 2488771
field min 4
field max 9
statistic Basic.rack[13].eps.queue[0] 	dropsum
field count 0
field mean nan
field stddev nan
field sum 0
field sqrsum 0
field min nan
field max nan
statistic Basic.rack[13].eps.queue[1] 	dropsum
field count 0
field mean nan
field stddev nan
field sum 0
field sqrsum 0
field min nan
field max nan
statistic Basic.rack[13].eps.queue[2] 	dropsum
field count 0
field mean nan
field stddev nan
field sum 0
field sqrsum 0
field min nan
field max nan
statistic Basic.rack[13].eps.queue[3] 	dropsum
field count 0
field mean nan
field stddev nan
field sum 0
field sqrsum 0
field min nan
field max nan
statistic Basic.rack[14].node[0].app 	throughput
field count 56457
field mean 28229
field stddev 16297.876410748
field sum 1593724653
field sqrsum 59985139731165
field min 1
field max 56457
statistic Basic.rack[14].node[0].app 	"End-to-End Delay"
field count 56457
field mean 0.00054244175240778
field stddev 0.00018937569707931
field sum 30.624634015686
field sqrsum 0.018636770400913
field min 6.7174178e-005
field max 0.0010143804
statistic Basic.rack[14].node[0].app 	hops
field count 56457
field mean 5.7762899197619
field stddev 1.4963025475171
field sum 326112
field sqrsum 2010118
field min 3
field max 8
statistic Basic.rack[14].node[1].app 	throughput
field count 56279
field mean 28140
field stddev 16246.492236788
field sum 1583691060
field sqrsum 59419560674180
field min 1
field max 56279
statistic Basic.rack[14].node[1].app 	"End-to-End Delay"
field count 56279
field mean 0.00054366899637733
field stddev 0.00019013135177959
field sum 30.59714744712
field sqrsum 0.018669166257437
field min 4.0080666e-005
field max 0.001005634112
statistic Basic.rack[14].node[1].app 	hops
field count 56279
field mean 5.7812150180351
field stddev 1.4981129399965
field sum 325361
field sqrsum 2007289
field min 3
field max 8
statistic Basic.rack[14].node[2].app 	throughput
field count 56399
field mean 28200
field stddev 16281.13325294
field sum 1590451800
field sqrsum 59800457529400
field min 1
field max 56399
statistic Basic.rack[14].node[2].app 	"End-to-End Delay"
field count 56399
field mean 0.0005435993442097
field stddev 0.00019017607004679
field sum 30.658459414083
field sqrsum 0.01870566137978
field min 0.000157311565
field max 0.001009351492
statistic Basic.rack[14].node[2].app 	hops
field count 56399
field mean 5.7739498927286
field stddev 1.5045652432505
field sum 325645
field sqrsum 2007927
field min 3
field max 8
statistic Basic.rack[14].node[3].app 	throughput
field count 55800
field mean 27900.5
field stddev 16108.216847311
field sum 1556847900
field sqrsum 57915260829300
field min 1
field max 55800
statistic Basic.rack[14].node[3].app 	"End-to-End Delay"
field count 55800
field mean 0.00054210293326983
field stddev 0.00018911529081871
field sum 30.249343676456
field sqrsum 0.018393886473658
field min 0.00012197933
field max 0.00100785671
statistic Basic.rack[14].node[3].app 	hops
field count 55800
field mean 5.7809677419355
field stddev 1.4939976667162
field sum 322578
field sqrsum 1989358
field min 3
field max 8
statistic Basic.rack[14].node[4].app 	throughput
field count 56146
field mean 28073.5
field stddev 16208.098443885
field sum 1576214731
field sqrsum 58999293596061
field min 1
field max 56146
statistic Basic.rack[14].node[4].app 	"End-to-End Delay"
field count 56146
field mean 0.00054401542146457
field stddev 0.00019026931997477
field sum 30.54428985355
field sqrsum 0.018649149258988
field min 1.5607485e-005
field max 0.001023585997
statistic Basic.rack[14].node[4].app 	hops
field count 56146
field mean 5.7830833897339
field stddev 1.5018803935144
field sum 324697
field sqrsum 2004393
field min 3
field max 8
statistic Basic.rack[14].node[5].app 	throughput
field count 56386
field mean 28193.5
field stddev 16277.38047619
field sum 1589718691
field sqrsum 59759115313381
field min 1
field max 56386
statistic Basic.rack[14].node[5].app 	"End-to-End Delay"
field count 56386
field mean 0.0005432493250426
field stddev 0.00018989132107081
field sum 30.631656441852
field sqrsum 0.018673797265602
field min 5.0833841e-005
field max 0.001020458159
statistic Basic.rack[14].node[5].app 	hops
field count 56386
field mean 5.7815415173979
field stddev 1.4998981870286
field sum 325998
field sqrsum 2011620
field min 3
field max 8
statistic Basic.rack[14].node[6].app 	throughput
field count 56679
field mean 28340
field stddev 16361.96229063
field sum 1606282860
field sqrsum 60695539575580
field min 1
field max 56679
statistic Basic.rack[14].node[6].app 	"End-to-End Delay"
field count 56679
field mean 0.00054370533612374
field stddev 0.00019008265514096
field sum 30.816674746158
field sqrsum 0.018803046884963
field min 0.000259993366
field max 0.000999962035
statistic Basic.rack[14].node[6].app 	hops
field count 56679
field mean 5.7817004534307
field stddev 1.4974010897122
field sum 327701
field sqrsum 2021753
field min 3
field max 8
statistic Basic.rack[14].node[7].app 	throughput
field count 56005
field mean 28003
field stddev 16167.395249905
field sum 1568308015
field sqrsum 58555916356055
field min 1
field max 56005
statistic Basic.rack[14].node[7].app 	"End-to-End Delay"
field count 56005
field mean 0.00054412980521034
field stddev 0.00019017800065169
field sum 30.473989740805
field sqrsum 0.018607340400519
field min 5.5603026e-005
field max 0.001042966509
statistic Basic.rack[14].node[7].app 	hops
field count 56005
field mean 5.781787340416
field stddev 1.5036216966663
field sum 323809
field sqrsum 1998813
field min 3
field max 8
statistic Basic.rack[14].node[8].app 	throughput
field count 56250
field mean 28125.5
field stddev 16238.120657884
field sum 1582059375
field sqrsum 59327753915625
field min 1
field max 56250
statistic Basic.rack[14].node[8].app 	"End-to-End Delay"
field count 56250
field mean 0.0005418982892078
field stddev 0.00018931526340471
field sum 30.481778767939
field sqrsum 0.018534003054975
field min 9.2406052e-005
field max 0.001033586984
statistic Basic.rack[14].node[8].app 	hops
field count 56250
field mean 5.7797688888889
field stddev 1.4977792173045
field sum 325112
field sqrsum 2005258
field min 3
field max 8
statistic Basic.rack[14].node[9].app 	throughput
field count 56517
field mean 28259
field stddev 16315.196918824
field sum 1597113903
field sqrsum 60176590008535
field min 1
field max 56517
statistic Basic.rack[14].node[9].app 	"End-to-End Delay"
field count 56517
field mean 0.00054238629247292
field stddev 0.00018954089545248
field sum 30.654046091692
field sqrsum 0.018656714155248
field min 9.8912e-006
field max 0.00102006139
statistic Basic.rack[14].node[9].app 	hops
field count 56517
field mean 5.7738025726772
field stddev 1.5025416224581
field sum 326318
field sqrsum 2011688
field min 3
field max 8
statistic Basic.rack[14].eps.queue[0] 	dropsum
field count 0
field mean nan
field stddev nan
field sum 0
field sqrsum 0
field min nan
field max nan
statistic Basic.rack[14].eps.queue[1] 	dropsum
field count 566088
field mean 283044.5
field stddev 163415.67392881
field sum 160228094916
field sqrsum 6.0468854605681e+016
field min 1
field max 566088
statistic Basic.rack[14].eps.queue[2] 	dropsum
field count 0
field mean nan
field stddev nan
field sum 0
field sqrsum 0
field min nan
field max nan
statistic Basic.rack[14].eps.queue[3] 	dropsum
field count 0
field mean nan
field stddev nan
field sum 0
field sqrsum 0
field min nan
field max nan
statistic Basic.rack[15].node[0].app 	throughput
field count 56498
field mean 28249.5
field stddev 16309.712091266
field sum 1596040251
field sqrsum 60115920080749
field min 1
field max 56498
statistic Basic.rack[15].node[0].app 	"End-to-End Delay"
field count 56498
field mean 0.00055967768632936
field stddev 0.00019655154740873
field sum 31.620669922236
field sqrsum 0.019880004344294
field min 5.0836045e-005
field max 0.001041437659
statistic Basic.rack[15].node[0].app 	hops
field count 56498
field mean 5.8547028213388
field stddev 1.5306039279214
field sum 330779
field sqrsum 2068971
field min 3
field max 8
statistic Basic.rack[15].node[1].app 	throughput
field count 56658
field mean 28329.5
field stddev 16355.900112803
field sum 1605092811
field sqrsum 60628100688029
field min 1
field max 56658
statistic Basic.rack[15].node[1].app 	"End-to-End Delay"
field count 56658
field mean 0.00055936915064739
field stddev 0.00019640266728653
field sum 31.69273733738
field sqrsum 0.019913427121338
field min 4.2628038e-005
field max 0.001043890794
statistic Basic.rack[15].node[1].app 	hops
field count 56658
field mean 5.8509124924989
field stddev 1.5311375251444
field sum 331501
field sqrsum 2072409
field min 3
field max 8
statistic Basic.rack[15].node[2].app 	throughput
field count 56630
field mean 28315.5
field stddev 16347.817209034
field sum 1603506765
field sqrsum 60538259903555
field min 1
field max 56630
statistic Basic.rack[15].node[2].app 	"End-to-End Delay"
field count 56630
field mean 0.00055951871046219
field stddev 0.00019649774290017
field sum 31.685544573474
field sqrsum 0.01991517791338
field min 0.000149455702
field max 0.000994100989
statistic Basic.rack[15].node[2].app 	hops
field count 56630
field mean 5.8538230619813
field stddev 1.529360001417
field sum 331502
field sqrsum 2073006
field min 3
field max 8
statistic Basic.rack[15].node[3].app 	throughput
field count 56435
field mean 28218
field stddev 16291.525557786
field sum 1592482830
field sqrsum 59915043168310
field min 1
field max 56435
statistic Basic.rack[15].node[3].app 	"End-to-End Delay"
field count 56435
field mean 0.00056184814434989
field stddev 0.0001972658685624
field sum 31.707900026386
field sqrsum 0.020011087472577
field min 1.0827243e-005
field max 0.001047091517
statistic Basic.rack[15].node[3].app 	hops
field count 56435
field mean 5.8638965181182
field stddev 1.5257043765974
field sum 330929
field sqrsum 2071899
field min 3
field max 8
statistic Basic.rack[15].node[4].app 	throughput
field count 56657
field mean 28329
field stddev 16355.611437669
field sum 1605036153
field sqrsum 60624890559065
field min 1
field max 56657
statistic Basic.rack[15].node[4].app 	"End-to-End Delay"
field count 56657
field mean 0.00056168213560093
field stddev 0.000197135780184
field sum 31.823224756742
field sqrsum 0.020076331539869
field min 2.3880061e-005
field max 0.001021607419
statistic Basic.rack[15].node[4].app 	hops
field count 56657
field mean 5.8741373528425
field stddev 1.5277455682033
field sum 332811
field sqrsum 2087213
field min 3
field max 8
statistic Basic.rack[15].node[5].app 	throughput
field count 56666
field mean 28333.5
field stddev 16358.20951388
field sum 1605546111
field sqrsum 60653785799321
field min 1
field max 56666
statistic Basic.rack[15].node[5].app 	"End-to-End Delay"
field count 56666
field mean 0.00056068090491138
field stddev 0.00019682450180018
field sum 31.771544157708
field sqrsum 0.020008893684472
field min 6.6493764e-005
field max 0.00105792298
statistic Basic.rack[15].node[5].app 	hops
field count 56666
field mean 5.8672572618501
field stddev 1.5308671997247
field sum 332474
field sqrsum 2083508
field min 3
field max 8
statistic Basic.rack[15].node[6].app 	throughput
field count 56741
field mean 28371
field stddev 16379.860148976
field sum 1609798911
field sqrsum 60894936605671
field min 1
field max 56741
statistic Basic.rack[15].node[6].app 	"End-to-End Delay"
field count 56741
field mean 0.00056093381312019
field stddev 0.00019691043405073
field sum 31.827945490253
field sqrsum 0.020053391645848
field min 3.3069146e-005
field max 0.001057964585
statistic Basic.rack[15].node[6].app 	hops
field count 56741
field mean 5.8679966866992
field stddev 1.5283785689784
field sum 332956
field sqrsum 2086326
field min 3
field max 8
statistic Basic.rack[15].node[7].app 	throughput
field count 56452
field mean 28226.5
field stddev 16296.433035074
field sum 1593442378
field sqrsum 59969203896030
field min 1
field max 56452
statistic Basic.rack[15].node[7].app 	"End-to-End Delay"
field count 56452
field mean 0.00055976267814322
field stddev 0.00019629612755399
field sum 31.599722706541
field sqrsum 0.019863524922119
field min 0.000102768836
field max 0.001041831327
statistic Basic.rack[15].node[7].app 	hops
field count 56452
field mean 5.8592255367392
field stddev 1.5271846252162
field sum 330765
field sqrsum 2069687
field min 3
field max 8
statistic Basic.rack[15].node[8].app 	throughput
field count 56485
field mean 28243
field stddev 16305.959314516
field sum 1595305855
field sqrsum 60074432581735
field min 1
field max 56485
statistic Basic.rack[15].node[8].app 	"End-to-End Delay"
field count 56485
field mean 0.00055939164209643
field stddev 0.00019633823101876
field sum 31.597236903817
field sqrsum 0.019852615062337
field min 3.7090589e-005
field max 0.001009023609
statistic Basic.rack[15].node[8].app 	hops
field count 56485
field mean 5.8429671594229
field stddev 1.5322531474773
field sum 330040
field sqrsum 2061026
field min 3
field max 8
statistic Basic.rack[15].node[9].app 	throughput
field count 56863
field mean 28432
field stddev 16415.078515398
field sum 1616728816
field sqrsum 61288572685744
field min 1
field max 56863
statistic Basic.rack[15].node[9].app 	"End-to-End Delay"
field count 56863
field mean 0.00055965235115173
field stddev 0.00019648279722956
field sum 31.823511643541
field sqrsum 0.020005288463254
field min 9.4704283e-005
field max 0.001014216982
statistic Basic.rack[15].node[9].app 	hops
field count 56863
field mean 5.8518368710761
field stddev 1.5316225508005
field sum 332753
field sqrsum 2080607
field min 3
field max 8
statistic Basic.rack[15].eps.queue[0] 	dropsum
field count 541263
field mean 270632
field stddev 156249.3137126
field sum 146483088216
field sqrsum 5.2857299345548e+016
field min 1
field max 541263
statistic Basic.rack[15].eps.queue[1] 	dropsum
field count 0
field mean nan
field stddev nan
field sum 0
field sqrsum 0
field min nan
field max nan
statistic Basic.rack[15].eps.queue[2] 	dropsum
field count 0
field mean nan
field stddev nan
field sum 0
field sqrsum 0
field min nan
field max nan
statistic Basic.rack[15].eps.queue[3] 	dropsum
field count 0
field mean nan
field stddev nan
field sum 0
field sqrsum 0
field min nan
field max nan
