version 2
run Basic-60-20180510-18:57:34-4072
attr configname Basic
attr datetime 20180510-18:57:34
attr experiment Basic
attr inifile omnetpp.ini
attr iterationvars "$0=exponential(0.08 ms), $1=7, $2=2"
attr iterationvarsf exponential(0.08_ms),7,2-
attr measurement "$0=exponential(0.08 ms), $1=7, $2=2"
attr network Networks.Basic
attr processid 4072
attr repetition 0
attr replication #0
attr resultdir results
attr runnumber 60
attr seedset 60
param **.frameCapacity 50
param **.packetLength "1024 bytes"
param **.pattern 7
param **.sendIaTime "exponential(0.08 ms)"
param **.tp 2

statistic Basic.rack[0].node[0].app 	throughput
field count 124671
field mean 62336
field stddev 35989.562042348
field sum 7771491456
field sqrsum 6.4592233137114e+014
field min 1
field max 124671
statistic Basic.rack[0].node[0].app 	"End-to-End Delay"
field count 124671
field mean 1.7563961146679e-005
field stddev 1.7477783770773e-005
field sum 2.1897166001176
field sqrsum 7.6543406913514e-005
field min 4e-007
field max 0.000201392354
statistic Basic.rack[0].node[0].app 	hops
field count 124671
field mean 2.9993262266285
field stddev 0.7064084805476
field sum 373929
field sqrsum 1183747
field min 2
field max 4
statistic Basic.rack[0].node[1].app 	throughput
field count 124700
field mean 62350.5
field stddev 35997.933621251
field sum 7775107350
field sqrsum 6.4637318273245e+014
field min 1
field max 124700
statistic Basic.rack[0].node[1].app 	"End-to-End Delay"
field count 124700
field mean 1.7645678108586e-005
field stddev 1.7612427042612e-005
field sum 2.2004160601407
field sqrsum 7.7509162320136e-005
field min 4e-007
field max 0.000194064282
statistic Basic.rack[0].node[1].app 	hops
field count 124700
field mean 3.0004651162791
field stddev 0.70739293101172
field sum 374158
field sqrsum 1185048
field min 2
field max 4
statistic Basic.rack[0].node[2].app 	throughput
field count 125307
field mean 62654
field stddev 36173.159427952
field sum 7850984778
field sqrsum 6.5585818337949e+014
field min 1
field max 125307
statistic Basic.rack[0].node[2].app 	"End-to-End Delay"
field count 125307
field mean 1.7649667222275e-005
field stddev 1.7600235450826e-005
field sum 2.2116268506216
field sqrsum 7.7850303019987e-005
field min 4e-007
field max 0.00019715614
statistic Basic.rack[0].node[2].app 	hops
field count 125307
field mean 3.0011172560192
field stddev 0.70681804453054
field sum 376061
field sqrsum 1191205
field min 2
field max 4
statistic Basic.rack[0].node[3].app 	throughput
field count 125196
field mean 62598.5
field stddev 36141.116488011
field sum 7837081806
field sqrsum 6.5411680821659e+014
field min 1
field max 125196
statistic Basic.rack[0].node[3].app 	"End-to-End Delay"
field count 125196
field mean 1.7580631844305e-005
field stddev 1.7511075348765e-005
field sum 2.2010247843797
field sqrsum 7.7084920761311e-005
field min 4e-007
field max 0.000159627782
statistic Basic.rack[0].node[3].app 	hops
field count 125196
field mean 2.9998083005847
field stddev 0.70704179971731
field sum 375564
field sqrsum 1189206
field min 2
field max 4
statistic Basic.rack[0].node[4].app 	throughput
field count 125636
field mean 62818.5
field stddev 36268.133547234
field sum 7892265066
field sqrsum 6.6103770664301e+014
field min 1
field max 125636
statistic Basic.rack[0].node[4].app 	"End-to-End Delay"
field count 125636
field mean 1.7626605808444e-005
field stddev 1.7591784104795e-005
field sum 2.2145362473496
field sqrsum 7.7915129980432e-005
field min 4e-007
field max 0.000232550681
statistic Basic.rack[0].node[4].app 	hops
field count 125636
field mean 2.9992995638193
field stddev 0.70815532782984
field sum 376820
field sqrsum 1193200
field min 2
field max 4
statistic Basic.rack[0].node[5].app 	throughput
field count 125013
field mean 62507
field stddev 36088.28893838
field sum 7814187591
field sqrsum 6.5125262693832e+014
field min 1
field max 125013
statistic Basic.rack[0].node[5].app 	"End-to-End Delay"
field count 125013
field mean 1.7548934208087e-005
field stddev 1.7534511151403e-005
field sum 2.1938449121556
field sqrsum 7.6935714699978e-005
field min 4e-007
field max 0.000183705302
statistic Basic.rack[0].node[5].app 	hops
field count 125013
field mean 2.9978562229528
field stddev 0.7072845110771
field sum 374771
field sqrsum 1186047
field min 2
field max 4
statistic Basic.rack[0].node[6].app 	throughput
field count 125416
field mean 62708.5
field stddev 36204.625017623
field sum 7864649236
field sqrsum 6.575711872712e+014
field min 1
field max 125416
statistic Basic.rack[0].node[6].app 	"End-to-End Delay"
field count 125416
field mean 1.7621968075785e-005
field stddev 1.7584430539211e-005
field sum 2.2100767481926
field sqrsum 7.7725749637141e-005
field min 4e-007
field max 0.000181458975
statistic Basic.rack[0].node[6].app 	hops
field count 125416
field mean 3.0014431970402
field stddev 0.70807159044717
field sum 376429
field sqrsum 1192709
field min 2
field max 4
statistic Basic.rack[0].node[7].app 	throughput
field count 125285
field mean 62643
field stddev 36166.80857499
field sum 7848228255
field sqrsum 6.5551280069454e+014
field min 1
field max 125285
statistic Basic.rack[0].node[7].app 	"End-to-End Delay"
field count 125285
field mean 1.759537732077e-005
field stddev 1.7573891896775e-005
field sum 2.2044368476326
field sqrsum 7.7480818699944e-005
field min 4e-007
field max 0.000181972411
statistic Basic.rack[0].node[7].app 	hops
field count 125285
field mean 3.0003751446702
field stddev 0.70670584180124
field sum 375902
field sqrsum 1190418
field min 2
field max 4
statistic Basic.rack[0].node[8].app 	throughput
field count 125282
field mean 62641.5
field stddev 36165.942549587
field sum 7847852403
field sqrsum 6.5546571245256e+014
field min 1
field max 125282
statistic Basic.rack[0].node[8].app 	"End-to-End Delay"
field count 125282
field mean 1.7668549262134e-005
field stddev 1.7564752965601e-005
field sum 2.2135511886587
field sqrsum 7.7762000837531e-005
field min 4e-007
field max 0.00017330448
statistic Basic.rack[0].node[8].app 	hops
field count 125282
field mean 3.0034721667917
field stddev 0.70658162006004
field sum 376281
field sqrsum 1192697
field min 2
field max 4
statistic Basic.rack[0].node[9].app 	throughput
field count 125500
field mean 62750.5
field stddev 36228.873728929
field sum 7875187750
field sqrsum 6.5889333347925e+014
field min 1
field max 125500
statistic Basic.rack[0].node[9].app 	"End-to-End Delay"
field count 125500
field mean 1.7606877823989e-005
field stddev 1.7516174349208e-005
field sum 2.2096631669106
field sqrsum 7.7410416256497e-005
field min 4e-007
field max 0.000176414708
statistic Basic.rack[0].node[9].app 	hops
field count 125500
field mean 3.0002709163347
field stddev 0.70754888848461
field sum 376534
field sqrsum 1192532
field min 2
field max 4
statistic Basic.rack[0].eps.queue[0] 	dropsum
field count 0
field mean nan
field stddev nan
field sum 0
field sqrsum 0
field min nan
field max nan
statistic Basic.rack[0].eps.queue[1] 	dropsum
field count 0
field mean nan
field stddev nan
field sum 0
field sqrsum 0
field min nan
field max nan
statistic Basic.rack[0].eps.queue[2] 	dropsum
field count 0
field mean nan
field stddev nan
field sum 0
field sqrsum 0
field min nan
field max nan
statistic Basic.rack[0].eps.queue[3] 	dropsum
field count 0
field mean nan
field stddev nan
field sum 0
field sqrsum 0
field min nan
field max nan
statistic Basic.rack[1].node[0].app 	throughput
field count 124558
field mean 62279.5
field stddev 35956.941752138
field sum 7757409961
field sqrsum 6.4416756575148e+014
field min 1
field max 124558
statistic Basic.rack[1].node[0].app 	"End-to-End Delay"
field count 124558
field mean 1.752102575522e-005
field stddev 1.7313350079552e-005
field sum 2.1823839260187
field sqrsum 7.5573826171388e-005
field min 4e-007
field max 0.000213140889
statistic Basic.rack[1].node[0].app 	hops
field count 124558
field mean 2.9998153470672
field stddev 0.70628027440617
field sum 373651
field sqrsum 1183017
field min 2
field max 4
statistic Basic.rack[1].node[1].app 	throughput
field count 124949
field mean 62475
field stddev 36069.813729766
field sum 7806188775
field sqrsum 6.5025292289458e+014
field min 1
field max 124949
statistic Basic.rack[1].node[1].app 	"End-to-End Delay"
field count 124949
field mean 1.7600981505187e-005
field stddev 1.7462073513215e-005
field sum 2.1992250380916
field sqrsum 7.6808164595221e-005
field min 4e-007
field max 0.000201891692
statistic Basic.rack[1].node[1].app 	hops
field count 124949
field mean 3.002673090621
field stddev 0.70808575317001
field sum 375181
field sqrsum 1189193
field min 2
field max 4
statistic Basic.rack[1].node[2].app 	throughput
field count 125635
field mean 62818
field stddev 36267.844872099
field sum 7892139430
field sqrsum 6.6102192223851e+014
field min 1
field max 125635
statistic Basic.rack[1].node[2].app 	"End-to-End Delay"
field count 125635
field mean 1.7542825090298e-005
field stddev 1.740046629613e-005
field sum 2.2039928302197
field sqrsum 7.6703249264282e-005
field min 4e-007
field max 0.000197947863
statistic Basic.rack[1].node[2].app 	hops
field count 125635
field mean 2.9997134556453
field stddev 0.70787738135372
field sum 376869
field sqrsum 1193453
field min 2
field max 4
statistic Basic.rack[1].node[3].app 	throughput
field count 124371
field mean 62186
field stddev 35902.959501969
field sum 7734135006
field sqrsum 6.4127064793249e+014
field min 1
field max 124371
statistic Basic.rack[1].node[3].app 	"End-to-End Delay"
field count 124371
field mean 1.7420848496617e-005
field stddev 1.7329448520451e-005
field sum 2.1666483483727
field sqrsum 7.509438071012e-005
field min 4e-007
field max 0.00021767435
statistic Basic.rack[1].node[3].app 	hops
field count 124371
field mean 2.9937525628965
field stddev 0.70635103320715
field sum 372336
field sqrsum 1176734
field min 2
field max 4
statistic Basic.rack[1].node[4].app 	throughput
field count 125336
field mean 62668.5
field stddev 36181.531006855
field sum 7854619116
field sqrsum 6.5631364588836e+014
field min 1
field max 125336
statistic Basic.rack[1].node[4].app 	"End-to-End Delay"
field count 125336
field mean 1.7517537843945e-005
field stddev 1.7448701071431e-005
field sum 2.1955781232087
field sqrsum 7.6620262149305e-005
field min 4e-007
field max 0.000203618136
statistic Basic.rack[1].node[4].app 	hops
field count 125336
field mean 2.9982686538584
field stddev 0.70733875550178
field sum 375791
field sqrsum 1189431
field min 2
field max 4
statistic Basic.rack[1].node[5].app 	throughput
field count 124939
field mean 62470
field stddev 36066.92697842
field sum 7804939330
field sqrsum 6.5009681161369e+014
field min 1
field max 124939
statistic Basic.rack[1].node[5].app 	"End-to-End Delay"
field count 124939
field mean 1.7493582007441e-005
field stddev 1.7339104305295e-005
field sum 2.1856306424276
field sqrsum 7.5796436183659e-005
field min 4e-007
field max 0.000200483154
statistic Basic.rack[1].node[5].app 	hops
field count 124939
field mean 3.000680332002
field stddev 0.70704985499254
field sum 374902
field sqrsum 1187420
field min 2
field max 4
statistic Basic.rack[1].node[6].app 	throughput
field count 124878
field mean 62439.5
field stddev 36049.317795209
field sum 7797319881
field sqrsum 6.4914507383964e+014
field min 1
field max 124878
statistic Basic.rack[1].node[6].app 	"End-to-End Delay"
field count 124878
field mean 1.7429857278541e-005
field stddev 1.7277073089844e-005
field sum 2.1766057172297
field sqrsum 7.5213368659637e-005
field min 4e-007
field max 0.00022348265
statistic Basic.rack[1].node[6].app 	hops
field count 124878
field mean 2.9977097647304
field stddev 0.7064657587655
field sum 374348
field sqrsum 1184512
field min 2
field max 4
statistic Basic.rack[1].node[7].app 	throughput
field count 125297
field mean 62649
field stddev 36170.272676606
field sum 7849731753
field sqrsum 6.5570117621434e+014
field min 1
field max 125297
statistic Basic.rack[1].node[7].app 	"End-to-End Delay"
field count 125297
field mean 1.7555010029391e-005
field stddev 1.7445404478262e-005
field sum 2.1995900916526
field sqrsum 7.6746678568456e-005
field min 4e-007
field max 0.000198043055
statistic Basic.rack[1].node[7].app 	hops
field count 125297
field mean 2.9999680758518
field stddev 0.70735505046192
field sum 375887
field sqrsum 1190341
field min 2
field max 4
statistic Basic.rack[1].node[8].app 	throughput
field count 124539
field mean 62270
field stddev 35951.456924581
field sum 7755043530
field sqrsum 6.4387282913629e+014
field min 1
field max 124539
statistic Basic.rack[1].node[8].app 	"End-to-End Delay"
field count 124539
field mean 1.7485013900069e-005
field stddev 1.7384146612988e-005
field sum 2.1775661461007
field sqrsum 7.5711223163922e-005
field min 4e-007
field max 0.000218487035
statistic Basic.rack[1].node[8].app 	hops
field count 124539
field mean 2.9985305807819
field stddev 0.70559332942186
field sum 373434
field sqrsum 1181756
field min 2
field max 4
statistic Basic.rack[1].node[9].app 	throughput
field count 125119
field mean 62560
field stddev 36118.888502647
field sum 7827444640
field sqrsum 6.5291063975632e+014
field min 1
field max 125119
statistic Basic.rack[1].node[9].app 	"End-to-End Delay"
field count 125119
field mean 1.750764029076e-005
field stddev 1.7346067473744e-005
field sum 2.1905384455396
field sqrsum 7.5997420802751e-005
field min 4e-007
field max 0.000187750088
statistic Basic.rack[1].node[9].app 	hops
field count 125119
field mean 2.9989450043559
field stddev 0.70825232464506
field sum 375225
field sqrsum 1188041
field min 2
field max 4
statistic Basic.rack[1].eps.queue[0] 	dropsum
field count 0
field mean nan
field stddev nan
field sum 0
field sqrsum 0
field min nan
field max nan
statistic Basic.rack[1].eps.queue[1] 	dropsum
field count 0
field mean nan
field stddev nan
field sum 0
field sqrsum 0
field min nan
field max nan
statistic Basic.rack[1].eps.queue[2] 	dropsum
field count 0
field mean nan
field stddev nan
field sum 0
field sqrsum 0
field min nan
field max nan
statistic Basic.rack[1].eps.queue[3] 	dropsum
field count 0
field mean nan
field stddev nan
field sum 0
field sqrsum 0
field min nan
field max nan
statistic Basic.rack[2].node[0].app 	throughput
field count 125272
field mean 62636.5
field stddev 36163.055798241
field sum 7846599628
field sqrsum 6.5530876793242e+014
field min 1
field max 125272
statistic Basic.rack[2].node[0].app 	"End-to-End Delay"
field count 125272
field mean 1.1908120510549e-005
field stddev 1.6026817252158e-005
field sum 1.4917540725976
field sqrsum 4.9940954926957e-005
field min 4e-007
field max 0.000196843124
statistic Basic.rack[2].node[0].app 	hops
field count 125272
field mean 3.2517481959257
field stddev 0.82900120286342
field sum 407353
field sqrsum 1410701
field min 2
field max 4
statistic Basic.rack[2].node[1].app 	throughput
field count 124961
field mean 62481
field stddev 36073.277831381
field sum 7807688241
field sqrsum 6.5044028941848e+014
field min 1
field max 124961
statistic Basic.rack[2].node[1].app 	"End-to-End Delay"
field count 124961
field mean 1.1821903208454e-005
field stddev 1.5946458550523e-005
field sum 1.4772768468316
field sqrsum 4.9240244851666e-005
field min 4e-007
field max 0.000191990705
statistic Basic.rack[2].node[1].app 	hops
field count 124961
field mean 3.2510383239571
field stddev 0.82924753282138
field sum 406253
field sqrsum 1406673
field min 2
field max 4
statistic Basic.rack[2].node[2].app 	throughput
field count 125220
field mean 62610.5
field stddev 36148.044691242
field sum 7840086810
field sqrsum 6.5449306026107e+014
field min 1
field max 125220
statistic Basic.rack[2].node[2].app 	"End-to-End Delay"
field count 125220
field mean 1.1928913070632e-005
field stddev 1.6045763258318e-005
field sum 1.4937384947046
field sqrsum 5.0058376638899e-005
field min 4e-007
field max 0.000185070046
statistic Basic.rack[2].node[2].app 	hops
field count 125220
field mean 3.2516850343396
field stddev 0.82916501978208
field sum 407176
field sqrsum 1410098
field min 2
field max 4
statistic Basic.rack[2].node[3].app 	throughput
field count 125064
field mean 62532.5
field stddev 36103.011370244
field sum 7820564580
field sqrsum 6.5204999927694e+014
field min 1
field max 125064
statistic Basic.rack[2].node[3].app 	"End-to-End Delay"
field count 125064
field mean 1.1860978103999e-005
field stddev 1.5972935844578e-005
field sum 1.4833813655986
field sqrsum 4.9502262318928e-005
field min 4e-007
field max 0.000208947951
statistic Basic.rack[2].node[3].app 	hops
field count 125064
field mean 3.2519270133692
field stddev 0.82870631747397
field sum 406699
field sqrsum 1408443
field min 2
field max 4
statistic Basic.rack[2].node[4].app 	throughput
field count 125301
field mean 62651
field stddev 36171.427377144
field sum 7850232951
field sqrsum 6.5576397607315e+014
field min 1
field max 125301
statistic Basic.rack[2].node[4].app 	"End-to-End Delay"
field count 125301
field mean 1.194369718302e-005
field stddev 1.6101341308792e-005
field sum 1.4965572007296
field sqrsum 5.0358850972942e-005
field min 4e-007
field max 0.000212758389
statistic Basic.rack[2].node[4].app 	hops
field count 125301
field mean 3.2510355065003
field stddev 0.82830357767184
field sum 407358
field sqrsum 1410302
field min 2
field max 4
statistic Basic.rack[2].node[5].app 	throughput
field count 124425
field mean 62213
field stddev 35918.547959237
field sum 7740852525
field sqrsum 6.4210629723292e+014
field min 1
field max 124425
statistic Basic.rack[2].node[5].app 	"End-to-End Delay"
field count 124425
field mean 1.1791614080141e-005
field stddev 1.5900572698531e-005
field sum 1.4671715819216
field sqrsum 4.8758218550834e-005
field min 4e-007
field max 0.000159469814
statistic Basic.rack[2].node[5].app 	hops
field count 124425
field mean 3.2472814948764
field stddev 0.83020307666585
field sum 404043
field sqrsum 1397799
field min 2
field max 4
statistic Basic.rack[2].node[6].app 	throughput
field count 124019
field mean 62010
field stddev 35801.34585459
field sum 7690418190
field sqrsum 6.3584121247647e+014
field min 1
field max 124019
statistic Basic.rack[2].node[6].app 	"End-to-End Delay"
field count 124019
field mean 1.179259984011e-005
field stddev 1.5950383733158e-005
field sum 1.4625064395706
field sqrsum 4.8798760583923e-005
field min 4e-007
field max 0.000206848352
statistic Basic.rack[2].node[6].app 	hops
field count 124019
field mean 3.2457607302107
field stddev 0.83021592630098
field sum 402536
field sqrsum 1392016
field min 2
field max 4
statistic Basic.rack[2].node[7].app 	throughput
field count 125016
field mean 62508.5
field stddev 36089.154963784
field sum 7814562636
field sqrsum 6.51299513189e+014
field min 1
field max 125016
statistic Basic.rack[2].node[7].app 	"End-to-End Delay"
field count 125016
field mean 1.1829129325355e-005
field stddev 1.6074709579827e-005
field sum 1.4788304317386
field sqrsum 4.97966883811e-005
field min 4e-007
field max 0.00017028054
statistic Basic.rack[2].node[7].app 	hops
field count 125016
field mean 3.2512478402764
field stddev 0.82931291531361
field sum 406458
field sqrsum 1407476
field min 2
field max 4
statistic Basic.rack[2].node[8].app 	throughput
field count 125465
field mean 62733
field stddev 36218.770099218
field sum 7870795845
field sqrsum 6.5834222406056e+014
field min 1
field max 125465
statistic Basic.rack[2].node[8].app 	"End-to-End Delay"
field count 125465
field mean 1.1893702000339e-005
field stddev 1.6018340470134e-005
field sum 1.4922433214725
field sqrsum 4.994075778011e-005
field min 4e-007
field max 0.000194197941
statistic Basic.rack[2].node[8].app 	hops
field count 125465
field mean 3.2496632527
field stddev 0.82919968552553
field sum 407719
field sqrsum 1411215
field min 2
field max 4
statistic Basic.rack[2].node[9].app 	throughput
field count 124653
field mean 62327
field stddev 35984.365889925
field sum 7769247531
field sqrsum 6.4564259807034e+014
field min 1
field max 124653
statistic Basic.rack[2].node[9].app 	"End-to-End Delay"
field count 124653
field mean 1.1815230488609e-005
field stddev 1.6036121480309e-005
field sum 1.4728039260966
field sqrsum 4.94566761649e-005
field min 4e-007
field max 0.000205742308
statistic Basic.rack[2].node[9].app 	hops
field count 124653
field mean 3.2484737631666
field stddev 0.82860825980446
field sum 404932
field sqrsum 1400996
field min 2
field max 4
statistic Basic.rack[2].eps.queue[0] 	dropsum
field count 0
field mean nan
field stddev nan
field sum 0
field sqrsum 0
field min nan
field max nan
statistic Basic.rack[2].eps.queue[1] 	dropsum
field count 0
field mean nan
field stddev nan
field sum 0
field sqrsum 0
field min nan
field max nan
statistic Basic.rack[2].eps.queue[2] 	dropsum
field count 0
field mean nan
field stddev nan
field sum 0
field sqrsum 0
field min nan
field max nan
statistic Basic.rack[2].eps.queue[3] 	dropsum
field count 0
field mean nan
field stddev nan
field sum 0
field sqrsum 0
field min nan
field max nan
statistic Basic.rack[3].node[0].app 	throughput
field count 124546
field mean 62273.5
field stddev 35953.477650523
field sum 7755915331
field sqrsum 6.4398140584826e+014
field min 1
field max 124546
statistic Basic.rack[3].node[0].app 	"End-to-End Delay"
field count 124546
field mean 1.1783346839863e-005
field stddev 1.5999552741307e-005
field sum 1.4675687155176
field sqrsum 4.9174608688507e-005
field min 4e-007
field max 0.000200265296
statistic Basic.rack[3].node[0].app 	hops
field count 124546
field mean 3.2453230131839
field stddev 0.8307510707575
field sum 404192
field sqrsum 1397688
field min 2
field max 4
statistic Basic.rack[3].node[1].app 	throughput
field count 124739
field mean 62370
field stddev 36009.1919515
field sum 7779971430
field sqrsum 6.4697983079499e+014
field min 1
field max 124739
statistic Basic.rack[3].node[1].app 	"End-to-End Delay"
field count 124739
field mean 1.1890245986545e-005
field stddev 1.6083129024212e-005
field sum 1.4831773941156
field sqrsum 4.9900953194623e-005
field min 4e-007
field max 0.000186186568
statistic Basic.rack[3].node[1].app 	hops
field count 124739
field mean 3.2496733178877
field stddev 0.82877322753151
field sum 405361
field sqrsum 1402969
field min 2
field max 4
statistic Basic.rack[3].node[2].app 	throughput
field count 125711
field mean 62856
field stddev 36289.784182329
field sum 7901690616
field sqrsum 6.6222225324886e+014
field min 1
field max 125711
statistic Basic.rack[3].node[2].app 	"End-to-End Delay"
field count 125711
field mean 1.1911328505346e-005
field stddev 1.6129033012626e-005
field sum 1.4973850177355
field sqrsum 5.0538761536732e-005
field min 4e-007
field max 0.000168967799
statistic Basic.rack[3].node[2].app 	hops
field count 125711
field mean 3.2522611386434
field stddev 0.82866998051744
field sum 408845
field sqrsum 1415995
field min 2
field max 4
statistic Basic.rack[3].node[3].app 	throughput
field count 124087
field mean 62044
field stddev 35820.975763743
field sum 7698853828
field sqrsum 6.368876829213e+014
field min 1
field max 124087
statistic Basic.rack[3].node[3].app 	"End-to-End Delay"
field count 124087
field mean 1.1903124597988e-005
field stddev 1.6034121082002e-005
field sum 1.4770230219906
field sqrsum 4.9482835886361e-005
field min 4e-007
field max 0.000183396522
statistic Basic.rack[3].node[3].app 	hops
field count 124087
field mean 3.2524438498795
field stddev 0.82712268980767
field sum 403586
field sqrsum 1397532
field min 2
field max 4
statistic Basic.rack[3].node[4].app 	throughput
field count 124823
field mean 62412
field stddev 36033.440662807
field sum 7790453076
field sqrsum 6.4828774635472e+014
field min 1
field max 124823
statistic Basic.rack[3].node[4].app 	"End-to-End Delay"
field count 124823
field mean 1.1897058490379e-005
field stddev 1.607563780482e-005
field sum 1.4850265319446
field sqrsum 4.9924714012991e-005
field min 4e-007
field max 0.000185847954
statistic Basic.rack[3].node[4].app 	hops
field count 124823
field mean 3.249112743645
field stddev 0.82945428924204
field sum 405564
field sqrsum 1403600
field min 2
field max 4
statistic Basic.rack[3].node[5].app 	throughput
field count 124644
field mean 62322.5
field stddev 35981.767813714
field sum 7768125690
field sqrsum 6.4550276171147e+014
field min 1
field max 124644
statistic Basic.rack[3].node[5].app 	"End-to-End Delay"
field count 124644
field mean 1.1945501669479e-005
field stddev 1.6139616512023e-005
field sum 1.4889351100906
field sqrsum 5.0253985549778e-005
field min 4e-007
field max 0.000193845452
statistic Basic.rack[3].node[5].app 	hops
field count 124644
field mean 3.2500481370944
field stddev 0.82807995008845
field sum 405099
field sqrsum 1402061
field min 2
field max 4
statistic Basic.rack[3].node[6].app 	throughput
field count 124701
field mean 62351
field stddev 35998.222296386
field sum 7775232051
field sqrsum 6.4638873307185e+014
field min 1
field max 124701
statistic Basic.rack[3].node[6].app 	"End-to-End Delay"
field count 124701
field mean 1.1927170326626e-005
field stddev 1.6117378604309e-005
field sum 1.4873300669006
field sqrsum 5.0132944706243e-005
field min 4e-007
field max 0.000169641981
statistic Basic.rack[3].node[6].app 	hops
field count 124701
field mean 3.2530212267744
field stddev 0.828234101064
field sum 405655
field sqrsum 1405145
field min 2
field max 4
statistic Basic.rack[3].node[7].app 	throughput
field count 125495
field mean 62748
field stddev 36227.430353256
field sum 7874560260
field sqrsum 6.5881458473922e+014
field min 1
field max 125495
statistic Basic.rack[3].node[7].app 	"End-to-End Delay"
field count 125495
field mean 1.187731392695e-005
field stddev 1.6090887546399e-005
field sum 1.4905435112625
field sqrsum 5.0196140789943e-005
field min 4e-007
field max 0.000169935386
statistic Basic.rack[3].node[7].app 	hops
field count 125495
field mean 3.2531814016495
field stddev 0.8292500968858
field sum 408258
field sqrsum 1414434
field min 2
field max 4
statistic Basic.rack[3].node[8].app 	throughput
field count 126018
field mean 63009.5
field stddev 36378.40744865
field sum 7940331171
field sqrsum 6.6708574911511e+014
field min 1
field max 126018
statistic Basic.rack[3].node[8].app 	"End-to-End Delay"
field count 126018
field mean 1.1881912915056e-005
field stddev 1.6002949681264e-005
field sum 1.4973349017296
field sqrsum 5.0063450722936e-005
field min 4e-007
field max 0.00017876764
statistic Basic.rack[3].node[8].app 	hops
field count 126018
field mean 3.25348759701
field stddev 0.82743125777315
field sum 409998
field sqrsum 1420200
field min 2
field max 4
statistic Basic.rack[3].node[9].app 	throughput
field count 125012
field mean 62506.5
field stddev 36088.000263245
field sum 7814062578
field sqrsum 6.5123699868815e+014
field min 1
field max 125012
statistic Basic.rack[3].node[9].app 	"End-to-End Delay"
field count 125012
field mean 1.1843281879376e-005
field stddev 1.5996698183837e-005
field sum 1.4805523543046
field sqrsum 4.952420780518e-005
field min 4e-007
field max 0.000193996966
statistic Basic.rack[3].node[9].app 	hops
field count 125012
field mean 3.2501519854094
field stddev 0.82917638289601
field sum 406308
field sqrsum 1406512
field min 2
field max 4
statistic Basic.rack[3].eps.queue[0] 	dropsum
field count 0
field mean nan
field stddev nan
field sum 0
field sqrsum 0
field min nan
field max nan
statistic Basic.rack[3].eps.queue[1] 	dropsum
field count 0
field mean nan
field stddev nan
field sum 0
field sqrsum 0
field min nan
field max nan
statistic Basic.rack[3].eps.queue[2] 	dropsum
field count 0
field mean nan
field stddev nan
field sum 0
field sqrsum 0
field min nan
field max nan
statistic Basic.rack[3].eps.queue[3] 	dropsum
field count 0
field mean nan
field stddev nan
field sum 0
field sqrsum 0
field min nan
field max nan
statistic Basic.rack[4].node[0].app 	throughput
field count 125193
field mean 62597
field stddev 36140.250462607
field sum 7836706221
field sqrsum 6.5406978685251e+014
field min 1
field max 125193
statistic Basic.rack[4].node[0].app 	"End-to-End Delay"
field count 125193
field mean 1.7571487384763e-005
field stddev 1.7512919484316e-005
field sum 2.1998272201607
field sqrsum 7.705091670671e-005
field min 4e-007
field max 0.000203019847
statistic Basic.rack[4].node[0].app 	hops
field count 125193
field mean 2.9996884809854
field stddev 0.70663775818658
field sum 375540
field sqrsum 1189016
field min 2
field max 4
statistic Basic.rack[4].node[1].app 	throughput
field count 125291
field mean 62646
field stddev 36168.540625798
field sum 7848979986
field sqrsum 6.5560698394395e+014
field min 1
field max 125291
statistic Basic.rack[4].node[1].app 	"End-to-End Delay"
field count 125291
field mean 1.7583403316708e-005
field stddev 1.7495280321209e-005
field sum 2.2030421849536
field sqrsum 7.7086348053191e-005
field min 4e-007
field max 0.000176269039
statistic Basic.rack[4].node[1].app 	hops
field count 125291
field mean 3.0003352196088
field stddev 0.70652515516582
field sum 375915
field sqrsum 1190413
field min 2
field max 4
statistic Basic.rack[4].node[2].app 	throughput
field count 125139
field mean 62570
field stddev 36124.662005339
field sum 7829947230
field sqrsum 6.5322378759239e+014
field min 1
field max 125139
statistic Basic.rack[4].node[2].app 	"End-to-End Delay"
field count 125139
field mean 1.7557924002698e-005
field stddev 1.7618135675007e-005
field sum 2.1971810517737
field sqrsum 7.7420611031321e-005
field min 4e-007
field max 0.000197803775
statistic Basic.rack[4].node[2].app 	hops
field count 125139
field mean 2.996228194248
field stddev 0.70710237204059
field sum 374945
field sqrsum 1185989
field min 2
field max 4
statistic Basic.rack[4].node[3].app 	throughput
field count 124807
field mean 62404
field stddev 36028.821860653
field sum 7788456028
field sqrsum 6.4803848380974e+014
field min 1
field max 124807
statistic Basic.rack[4].node[3].app 	"End-to-End Delay"
field count 124807
field mean 1.7549444194009e-005
field stddev 1.7422676986152e-005
field sum 2.1902934815217
field sqrsum 7.6323253756309e-005
field min 4e-007
field max 0.000204688136
statistic Basic.rack[4].node[3].app 	hops
field count 124807
field mean 3.0007531628835
field stddev 0.70689671992098
field sum 374515
field sqrsum 1186193
field min 2
field max 4
statistic Basic.rack[4].node[4].app 	throughput
field count 125342
field mean 62671.5
field stddev 36183.263057662
field sum 7855371153
field sqrsum 6.5640790582994e+014
field min 1
field max 125342
statistic Basic.rack[4].node[4].app 	"End-to-End Delay"
field count 125342
field mean 1.7600189419425e-005
field stddev 1.7508621651489e-005
field sum 2.2060429422096
field sqrsum 7.7250286841909e-005
field min 4e-007
field max 0.00017114726
statistic Basic.rack[4].node[4].app 	hops
field count 125342
field mean 2.9992500518581
field stddev 0.7076674868842
field sum 375932
field sqrsum 1190284
field min 2
field max 4
statistic Basic.rack[4].node[5].app 	throughput
field count 124528
field mean 62264.5
field stddev 35948.2814981
field sum 7753673656
field sqrsum 6.4370223324746e+014
field min 1
field max 124528
statistic Basic.rack[4].node[5].app 	"End-to-End Delay"
field count 124528
field mean 1.7610261447503e-005
field stddev 1.7524015874305e-005
field sum 2.1929706375347
field sqrsum 7.6859923713439e-005
field min 4e-007
field max 0.000193983559
statistic Basic.rack[4].node[5].app 	hops
field count 124528
field mean 3.0006343954773
field stddev 0.7073648140436
field sum 373663
field sqrsum 1183535
field min 2
field max 4
statistic Basic.rack[4].node[6].app 	throughput
field count 124925
field mean 62463
field stddev 36062.885526535
field sum 7803190275
field sqrsum 6.4987829779968e+014
field min 1
field max 124925
statistic Basic.rack[4].node[6].app 	"End-to-End Delay"
field count 124925
field mean 1.7501267562487e-005
field stddev 1.7441612088105e-005
field sum 2.1863458502437
field sqrsum 7.6266932790988e-005
field min 4e-007
field max 0.000166254485
statistic Basic.rack[4].node[6].app 	hops
field count 124925
field mean 2.9972063237943
field stddev 0.70775190215999
field sum 374426
field sqrsum 1184808
field min 2
field max 4
statistic Basic.rack[4].node[7].app 	throughput
field count 124869
field mean 62435
field stddev 36046.719718998
field sum 7796196015
field sqrsum 6.490047321967e+014
field min 1
field max 124869
statistic Basic.rack[4].node[7].app 	"End-to-End Delay"
field count 124869
field mean 1.7519525782521e-005
field stddev 1.7487002927192e-005
field sum 2.1876456649376
field sqrsum 7.6510558576028e-005
field min 4e-007
field max 0.000193810938
statistic Basic.rack[4].node[7].app 	hops
field count 124869
field mean 2.9975974821613
field stddev 0.70693279323702
field sum 374307
field sqrsum 1184425
field min 2
field max 4
statistic Basic.rack[4].node[8].app 	throughput
field count 124160
field mean 62080.5
field stddev 35842.049048569
field sum 7707914880
field sqrsum 6.3801237697216e+014
field min 1
field max 124160
statistic Basic.rack[4].node[8].app 	"End-to-End Delay"
field count 124160
field mean 1.75528538444e-005
field stddev 1.7459068137758e-005
field sum 2.1793623333207
field sqrsum 7.6100058210966e-005
field min 4e-007
field max 0.000201900233
statistic Basic.rack[4].node[8].app 	hops
field count 124160
field mean 3.0000805412371
field stddev 0.70611797300047
field sum 372490
field sqrsum 1179406
field min 2
field max 4
statistic Basic.rack[4].node[9].app 	throughput
field count 125693
field mean 62847
field stddev 36284.588029906
field sum 7899427971
field sqrsum 6.6193783311526e+014
field min 1
field max 125693
statistic Basic.rack[4].node[9].app 	"End-to-End Delay"
field count 125693
field mean 1.7583330055704e-005
field stddev 1.7530802613937e-005
field sum 2.2101015046916
field sqrsum 7.7489745945581e-005
field min 4e-007
field max 0.000193312209
statistic Basic.rack[4].node[9].app 	hops
field count 125693
field mean 2.999252146102
field stddev 0.70745509396107
field sum 376985
field sqrsum 1193581
field min 2
field max 4
statistic Basic.rack[4].eps.queue[0] 	dropsum
field count 0
field mean nan
field stddev nan
field sum 0
field sqrsum 0
field min nan
field max nan
statistic Basic.rack[4].eps.queue[1] 	dropsum
field count 0
field mean nan
field stddev nan
field sum 0
field sqrsum 0
field min nan
field max nan
statistic Basic.rack[4].eps.queue[2] 	dropsum
field count 0
field mean nan
field stddev nan
field sum 0
field sqrsum 0
field min nan
field max nan
statistic Basic.rack[4].eps.queue[3] 	dropsum
field count 0
field mean nan
field stddev nan
field sum 0
field sqrsum 0
field min nan
field max nan
statistic Basic.rack[5].node[0].app 	throughput
field count 125006
field mean 62503.5
field stddev 36086.268212438
field sum 7813312521
field sqrsum 6.5114323443759e+014
field min 1
field max 125006
statistic Basic.rack[5].node[0].app 	"End-to-End Delay"
field count 125006
field mean 1.7489153052947e-005
field stddev 1.7382560761161e-005
field sum 2.1862490665366
field sqrsum 7.6006332630547e-005
field min 4e-007
field max 0.000168050884
statistic Basic.rack[5].node[0].app 	hops
field count 125006
field mean 3.0004079804169
field stddev 0.7063737502123
field sum 375069
field sqrsum 1187733
field min 2
field max 4
statistic Basic.rack[5].node[1].app 	throughput
field count 124872
field mean 62436.5
field stddev 36047.585744402
field sum 7796570628
field sqrsum 6.4905151049662e+014
field min 1
field max 124872
statistic Basic.rack[5].node[1].app 	"End-to-End Delay"
field count 124872
field mean 1.7575255039237e-005
field stddev 1.7498104589921e-005
field sum 2.1946572472597
field sqrsum 7.6805121181589e-005
field min 4e-007
field max 0.000173293922
statistic Basic.rack[5].node[1].app 	hops
field count 124872
field mean 3.0002002050099
field stddev 0.70779443630047
field sum 374641
field sqrsum 1186555
field min 2
field max 4
statistic Basic.rack[5].node[2].app 	throughput
field count 124798
field mean 62399.5
field stddev 36026.223784442
field sum 7787332801
field sqrsum 6.478983017104e+014
field min 1
field max 124798
statistic Basic.rack[5].node[2].app 	"End-to-End Delay"
field count 124798
field mean 1.7573360242381e-005
field stddev 1.7436451733483e-005
field sum 2.1931202115287
field sqrsum 7.6482504604442e-005
field min 4e-007
field max 0.000165665826
statistic Basic.rack[5].node[2].app 	hops
field count 124798
field mean 3.0006891136076
field stddev 0.70589002953826
field sum 374480
field sqrsum 1185882
field min 2
field max 4
statistic Basic.rack[5].node[3].app 	throughput
field count 125525
field mean 62763
field stddev 36236.090607294
field sum 7878325575
field sqrsum 6.5928717130978e+014
field min 1
field max 125525
statistic Basic.rack[5].node[3].app 	"End-to-End Delay"
field count 125525
field mean 1.7576144764235e-005
field stddev 1.743485309018e-005
field sum 2.2062455715306
field sqrsum 7.693333676479e-005
field min 4e-007
field max 0.000171674265
statistic Basic.rack[5].node[3].app 	hops
field count 125525
field mean 3.0005337582155
field stddev 0.70810296144501
field sum 376642
field sqrsum 1193066
field min 2
field max 4
statistic Basic.rack[5].node[4].app 	throughput
field count 125461
field mean 62731
field stddev 36217.61539868
field sum 7870293991
field sqrsum 6.5827925970123e+014
field min 1
field max 125461
statistic Basic.rack[5].node[4].app 	"End-to-End Delay"
field count 125461
field mean 1.7618799924858e-005
field stddev 1.7490455429714e-005
field sum 2.2104722573727
field sqrsum 7.7326093708776e-005
field min 4e-007
field max 0.000179542972
statistic Basic.rack[5].node[4].app 	hops
field count 125461
field mean 3.0011876200572
field stddev 0.7068070062941
field sum 376532
field sqrsum 1192720
field min 2
field max 4
statistic Basic.rack[5].node[5].app 	throughput
field count 125036
field mean 62518.5
field stddev 36094.928466476
field sum 7817063166
field sqrsum 6.5161214570371e+014
field min 1
field max 125036
statistic Basic.rack[5].node[5].app 	"End-to-End Delay"
field count 125036
field mean 1.7489604916429e-005
field stddev 1.7302234424527e-005
field sum 2.1868302403306
field sqrsum 7.5678189288907e-005
field min 4e-007
field max 0.000174763752
statistic Basic.rack[5].node[5].app 	hops
field count 125036
field mean 2.9995521289869
field stddev 0.70623802160016
field sum 375052
field sqrsum 1187352
field min 2
field max 4
statistic Basic.rack[5].node[6].app 	throughput
field count 124733
field mean 62367
field stddev 36007.459900693
field sum 7779223011
field sqrsum 6.4688647562838e+014
field min 1
field max 124733
statistic Basic.rack[5].node[6].app 	"End-to-End Delay"
field count 124733
field mean 1.7619470746063e-005
field stddev 1.7528785356615e-005
field sum 2.1977294445686
field sqrsum 7.7047773937414e-005
field min 4e-007
field max 0.000176075687
statistic Basic.rack[5].node[6].app 	hops
field count 124733
field mean 3.0007936953332
field stddev 0.70708932849825
field sum 374298
field sqrsum 1185554
field min 2
field max 4
statistic Basic.rack[5].node[7].app 	throughput
field count 124812
field mean 62406.5
field stddev 36030.265236326
field sum 7789080078
field sqrsum 6.4811637149025e+014
field min 1
field max 124812
statistic Basic.rack[5].node[7].app 	"End-to-End Delay"
field count 124812
field mean 1.7539611440612e-005
field stddev 1.7390169493786e-005
field sum 2.1891539831257
field sqrsum 7.614200262446e-005
field min 4e-007
field max 0.000176835326
statistic Basic.rack[5].node[7].app 	hops
field count 124812
field mean 3.0006810242605
field stddev 0.70564042163933
field sum 374521
field sqrsum 1185965
field min 2
field max 4
statistic Basic.rack[5].node[8].app 	throughput
field count 125527
field mean 62764
field stddev 36236.667957563
field sum 7878576628
field sqrsum 6.5931868511418e+014
field min 1
field max 125527
statistic Basic.rack[5].node[8].app 	"End-to-End Delay"
field count 125527
field mean 1.761402341723e-005
field stddev 1.7433436406652e-005
field sum 2.2110355174947
field sqrsum 7.7095683894378e-005
field min 4e-007
field max 0.000173034109
statistic Basic.rack[5].node[8].app 	hops
field count 125527
field mean 3.0025811180065
field stddev 0.70742308908421
field sum 376905
field sqrsum 1194507
field min 2
field max 4
statistic Basic.rack[5].node[9].app 	throughput
field count 124812
field mean 62406.5
field stddev 36030.265236326
field sum 7789080078
field sqrsum 6.4811637149025e+014
field min 1
field max 124812
statistic Basic.rack[5].node[9].app 	"End-to-End Delay"
field count 124812
field mean 1.7576282117181e-005
field stddev 1.7497403804798e-005
field sum 2.1937309236096
field sqrsum 7.6769662013625e-005
field min 4e-007
field max 0.00017252458
statistic Basic.rack[5].node[9].app 	hops
field count 124812
field mean 3.0000080120501
field stddev 0.70854150966272
field sum 374437
field sqrsum 1185973
field min 2
field max 4
statistic Basic.rack[5].eps.queue[0] 	dropsum
field count 0
field mean nan
field stddev nan
field sum 0
field sqrsum 0
field min nan
field max nan
statistic Basic.rack[5].eps.queue[1] 	dropsum
field count 0
field mean nan
field stddev nan
field sum 0
field sqrsum 0
field min nan
field max nan
statistic Basic.rack[5].eps.queue[2] 	dropsum
field count 0
field mean nan
field stddev nan
field sum 0
field sqrsum 0
field min nan
field max nan
statistic Basic.rack[5].eps.queue[3] 	dropsum
field count 0
field mean nan
field stddev nan
field sum 0
field sqrsum 0
field min nan
field max nan
statistic Basic.rack[6].node[0].app 	throughput
field count 124619
field mean 62310
field stddev 35974.550935349
field sum 7765009890
field sqrsum 6.4511443332457e+014
field min 1
field max 124619
statistic Basic.rack[6].node[0].app 	"End-to-End Delay"
field count 124619
field mean 1.1902671293611e-005
field stddev 1.6019186462908e-005
field sum 1.4832989939386
field sqrsum 4.9633985545726e-005
field min 4e-007
field max 0.000158150502
statistic Basic.rack[6].node[0].app 	hops
field count 124619
field mean 3.2505075470033
field stddev 0.82907286827269
field sum 405075
field sqrsum 1402357
field min 2
field max 4
statistic Basic.rack[6].node[1].app 	throughput
field count 124440
field mean 62220.5
field stddev 35922.878086256
field sum 7742719020
field sqrsum 6.4233855080554e+014
field min 1
field max 124440
statistic Basic.rack[6].node[1].app 	"End-to-End Delay"
field count 124440
field mean 1.1881094159801e-005
field stddev 1.5973260109159e-005
field sum 1.4784833572456
field sqrsum 4.9315993428883e-005
field min 4e-007
field max 0.000162225968
statistic Basic.rack[6].node[1].app 	hops
field count 124440
field mean 3.2514705882353
field stddev 0.82908795624657
field sum 404613
field sqrsum 1401125
field min 2
field max 4
statistic Basic.rack[6].node[2].app 	throughput
field count 125004
field mean 62502.5
field stddev 36085.690862169
field sum 7813062510
field sqrsum 6.5111198168753e+014
field min 1
field max 125004
statistic Basic.rack[6].node[2].app 	"End-to-End Delay"
field count 125004
field mean 1.1911363758316e-005
field stddev 1.6075623160171e-005
field sum 1.4889681152446
field sqrsum 5.0039623620672e-005
field min 4e-007
field max 0.000168063597
statistic Basic.rack[6].node[2].app 	hops
field count 125004
field mean 3.248088061182
field stddev 0.82854201390643
field sum 406024
field sqrsum 1404614
field min 2
field max 4
statistic Basic.rack[6].node[3].app 	throughput
field count 125251
field mean 62626
field stddev 36156.993620414
field sum 7843969126
field sqrsum 6.5497926599013e+014
field min 1
field max 125251
statistic Basic.rack[6].node[3].app 	"End-to-End Delay"
field count 125251
field mean 1.1871806140538e-005
field stddev 1.5936324521287e-005
field sum 1.4869555909086
field sqrsum 4.9462145030638e-005
field min 4e-007
field max 0.000168667248
statistic Basic.rack[6].node[3].app 	hops
field count 125251
field mean 3.2487964167951
field stddev 0.82860537937501
field sum 406915
field sqrsum 1407979
field min 2
field max 4
statistic Basic.rack[6].node[4].app 	throughput
field count 124489
field mean 62245
field stddev 35937.023167851
field sum 7748817805
field sqrsum 6.4309763609036e+014
field min 1
field max 124489
statistic Basic.rack[6].node[4].app 	"End-to-End Delay"
field count 124489
field mean 1.1794237927999e-005
field stddev 1.5974041954825e-005
field sum 1.4682528854186
field sqrsum 4.9082528867528e-005
field min 4e-007
field max 0.000151174293
statistic Basic.rack[6].node[4].app 	hops
field count 124489
field mean 3.2482147017006
field stddev 0.83010830413052
field sum 404367
field sqrsum 1399253
field min 2
field max 4
statistic Basic.rack[6].node[5].app 	throughput
field count 125360
field mean 62680.5
field stddev 36188.459210085
field sum 7857627480
field sqrsum 6.5669073980436e+014
field min 1
field max 125360
statistic Basic.rack[6].node[5].app 	"End-to-End Delay"
field count 125360
field mean 1.1818551238749e-005
field stddev 1.5949522316389e-005
field sum 1.4815735832896
field sqrsum 4.939978610031e-005
field min 4e-007
field max 0.000162617903
statistic Basic.rack[6].node[5].app 	hops
field count 125360
field mean 3.2501037013401
field stddev 0.82981585080825
field sum 407433
field sqrsum 1410521
field min 2
field max 4
statistic Basic.rack[6].node[6].app 	throughput
field count 125243
field mean 62622
field stddev 36154.684219337
field sum 7842967146
field sqrsum 6.5485377050003e+014
field min 1
field max 125243
statistic Basic.rack[6].node[6].app 	"End-to-End Delay"
field count 125243
field mean 1.1842396458928e-005
field stddev 1.598580015452e-005
field sum 1.4831772597056
field sqrsum 4.9569441036026e-005
field min 4e-007
field max 0.000160455206
statistic Basic.rack[6].node[6].app 	hops
field count 125243
field mean 3.2495868032545
field stddev 0.82881567429654
field sum 406988
field sqrsum 1408576
field min 2
field max 4
statistic Basic.rack[6].node[7].app 	throughput
field count 125050
field mean 62525.5
field stddev 36098.96991836
field sum 7818813775
field sqrsum 6.5183104798042e+014
field min 1
field max 125050
statistic Basic.rack[6].node[7].app 	"End-to-End Delay"
field count 125050
field mean 1.1864504868121e-005
field stddev 1.605267823807e-005
field sum 1.4836563337586
field sqrsum 4.9826534356827e-005
field min 4e-007
field max 0.000163308048
statistic Basic.rack[6].node[7].app 	hops
field count 125050
field mean 3.2498520591763
field stddev 0.83010292273111
field sum 406394
field sqrsum 1406888
field min 2
field max 4
statistic Basic.rack[6].node[8].app 	throughput
field count 124905
field mean 62453
field stddev 36057.112023844
field sum 7800691965
field sqrsum 6.495662201562e+014
field min 1
field max 124905
statistic Basic.rack[6].node[8].app 	"End-to-End Delay"
field count 124905
field mean 1.1845340525404e-005
field stddev 1.5954925322724e-005
field sum 1.4795422583256
field sqrsum 4.9321199402668e-005
field min 4e-007
field max 0.000153626157
statistic Basic.rack[6].node[8].app 	hops
field count 124905
field mean 3.2506785156719
field stddev 0.82884959404782
field sum 406026
field sqrsum 1405668
field min 2
field max 4
statistic Basic.rack[6].node[9].app 	throughput
field count 124738
field mean 62369.5
field stddev 36008.903276366
field sum 7779846691
field sqrsum 6.4696427097687e+014
field min 1
field max 124738
statistic Basic.rack[6].node[9].app 	"End-to-End Delay"
field count 124738
field mean 1.1890610811313e-005
field stddev 1.6149457161164e-005
field sum 1.4832110113816
field sqrsum 5.0168314006211e-005
field min 4e-007
field max 0.000166796073
statistic Basic.rack[6].node[9].app 	hops
field count 124738
field mean 3.2493386137344
field stddev 0.83031748033005
field sum 405316
field sqrsum 1403006
field min 2
field max 4
statistic Basic.rack[6].eps.queue[0] 	dropsum
field count 0
field mean nan
field stddev nan
field sum 0
field sqrsum 0
field min nan
field max nan
statistic Basic.rack[6].eps.queue[1] 	dropsum
field count 0
field mean nan
field stddev nan
field sum 0
field sqrsum 0
field min nan
field max nan
statistic Basic.rack[6].eps.queue[2] 	dropsum
field count 0
field mean nan
field stddev nan
field sum 0
field sqrsum 0
field min nan
field max nan
statistic Basic.rack[6].eps.queue[3] 	dropsum
field count 0
field mean nan
field stddev nan
field sum 0
field sqrsum 0
field min nan
field max nan
statistic Basic.rack[7].node[0].app 	throughput
field count 124804
field mean 62402.5
field stddev 36027.955835249
field sum 7788081610
field sqrsum 6.4799175419683e+014
field min 1
field max 124804
statistic Basic.rack[7].node[0].app 	"End-to-End Delay"
field count 124804
field mean 1.1895941828335e-005
field stddev 1.6176099525898e-005
field sum 1.4846611239436
field sqrsum 5.0318168608604e-005
field min 4e-007
field max 0.00019066233
statistic Basic.rack[7].node[0].app 	hops
field count 124804
field mean 3.2501442261466
field stddev 0.82927063032648
field sum 405631
field sqrsum 1404185
field min 2
field max 4
statistic Basic.rack[7].node[1].app 	throughput
field count 125467
field mean 62734
field stddev 36219.347449487
field sum 7871046778
field sqrsum 6.5837370774581e+014
field min 1
field max 125467
statistic Basic.rack[7].node[1].app 	"End-to-End Delay"
field count 125467
field mean 1.1943345641201e-005
field stddev 1.6155089712591e-005
field sum 1.4984957475645
field sqrsum 5.0642038014172e-005
field min 4e-007
field max 0.000190579268
statistic Basic.rack[7].node[1].app 	hops
field count 125467
field mean 3.2474834020101
field stddev 0.83000415550595
field sum 407452
field sqrsum 1409628
field min 2
field max 4
statistic Basic.rack[7].node[2].app 	throughput
field count 124917
field mean 62459
field stddev 36060.576125459
field sum 7802190903
field sqrsum 6.4975345475034e+014
field min 1
field max 124917
statistic Basic.rack[7].node[2].app 	"End-to-End Delay"
field count 124917
field mean 1.1985111568774e-005
field stddev 1.6298001341524e-005
field sum 1.4971441818365
field sqrsum 5.1124233532681e-005
field min 4e-007
field max 0.000184676801
statistic Basic.rack[7].node[2].app 	hops
field count 124917
field mean 3.251735152141
field stddev 0.82907985512563
field sum 406197
field sqrsum 1406709
field min 2
field max 4
statistic Basic.rack[7].node[3].app 	throughput
field count 125288
field mean 62644.5
field stddev 36167.674600394
field sum 7848604116
field sqrsum 6.5555989119164e+014
field min 1
field max 125288
statistic Basic.rack[7].node[3].app 	"End-to-End Delay"
field count 125288
field mean 1.1887454340891e-005
field stddev 1.6144209308528e-005
field sum 1.4893553794616
field sqrsum 5.0358883232238e-005
field min 4e-007
field max 0.000190665827
statistic Basic.rack[7].node[3].app 	hops
field count 125288
field mean 3.2489703722623
field stddev 0.82831855293291
field sum 407057
field sqrsum 1408477
field min 2
field max 4
statistic Basic.rack[7].node[4].app 	throughput
field count 125499
field mean 62750
field stddev 36228.585053794
field sum 7875062250
field sqrsum 6.5887758322925e+014
field min 1
field max 125499
statistic Basic.rack[7].node[4].app 	"End-to-End Delay"
field count 125499
field mean 1.1985620296827e-005
field stddev 1.6351836943018e-005
field sum 1.5041833616315
field sqrsum 5.1584548576265e-005
field min 4e-007
field max 0.000223643143
statistic Basic.rack[7].node[4].app 	hops
field count 125499
field mean 3.2498426282281
field stddev 0.82963324578177
field sum 407852
field sqrsum 1411834
field min 2
field max 4
statistic Basic.rack[7].node[5].app 	throughput
field count 124664
field mean 62332.5
field stddev 35987.541316406
field sum 7770618780
field sqrsum 6.4581353659954e+014
field min 1
field max 124664
statistic Basic.rack[7].node[5].app 	"End-to-End Delay"
field count 124664
field mean 1.1934880875983e-005
field stddev 1.6250992976749e-005
field sum 1.4878499895236
field sqrsum 5.0680159039178e-005
field min 4e-007
field max 0.000180288082
statistic Basic.rack[7].node[5].app 	hops
field count 124664
field mean 3.2483555797985
field stddev 0.83062468920206
field sum 404953
field sqrsum 1401441
field min 2
field max 4
statistic Basic.rack[7].node[6].app 	throughput
field count 125311
field mean 62656
field stddev 36174.31412849
field sum 7851486016
field sqrsum 6.5592099326266e+014
field min 1
field max 125311
statistic Basic.rack[7].node[6].app 	"End-to-End Delay"
field count 125311
field mean 1.1880839947718e-005
field stddev 1.6173863816738e-005
field sum 1.4887999346886
field sqrsum 5.0468521683444e-005
field min 4e-007
field max 0.000193225102
statistic Basic.rack[7].node[6].app 	hops
field count 125311
field mean 3.2501296773627
field stddev 0.82844999020098
field sum 407277
field sqrsum 1409707
field min 2
field max 4
statistic Basic.rack[7].node[7].app 	throughput
field count 124669
field mean 62335
field stddev 35988.984692079
field sum 7771242115
field sqrsum 6.45891245904e+014
field min 1
field max 124669
statistic Basic.rack[7].node[7].app 	"End-to-End Delay"
field count 124669
field mean 1.1839476437202e-005
field stddev 1.6121440026665e-005
field sum 1.4760156879495
field sqrsum 4.9876569450016e-005
field min 4e-007
field max 0.000183513185
statistic Basic.rack[7].node[7].app 	hops
field count 124669
field mean 3.2480488333106
field stddev 0.83132078607233
field sum 404931
field sqrsum 1401393
field min 2
field max 4
statistic Basic.rack[7].node[8].app 	throughput
field count 125066
field mean 62533.5
field stddev 36103.588720514
field sum 7820814711
field sqrsum 6.5208128203552e+014
field min 1
field max 125066
statistic Basic.rack[7].node[8].app 	"End-to-End Delay"
field count 125066
field mean 1.1954525108027e-005
field stddev 1.6196999641068e-005
field sum 1.4951046371605
field sqrsum 5.0683167877486e-005
field min 4e-007
field max 0.000171416858
statistic Basic.rack[7].node[8].app 	hops
field count 125066
field mean 3.2491724369533
field stddev 0.82949293206461
field sum 406361
field sqrsum 1406389
field min 2
field max 4
statistic Basic.rack[7].node[9].app 	throughput
field count 124663
field mean 62332
field stddev 35987.252641271
field sum 7770494116
field sqrsum 6.4579799548664e+014
field min 1
field max 124663
statistic Basic.rack[7].node[9].app 	"End-to-End Delay"
field count 124663
field mean 1.1993578958236e-005
field stddev 1.6284577997556e-005
field sum 1.4951555336705
field sqrsum 5.0991067649303e-005
field min 4e-007
field max 0.000208249235
statistic Basic.rack[7].node[9].app 	hops
field count 124663
field mean 3.2521036714984
field stddev 0.82845818111431
field sum 405417
field sqrsum 1404019
field min 2
field max 4
statistic Basic.rack[7].eps.queue[0] 	dropsum
field count 0
field mean nan
field stddev nan
field sum 0
field sqrsum 0
field min nan
field max nan
statistic Basic.rack[7].eps.queue[1] 	dropsum
field count 0
field mean nan
field stddev nan
field sum 0
field sqrsum 0
field min nan
field max nan
statistic Basic.rack[7].eps.queue[2] 	dropsum
field count 0
field mean nan
field stddev nan
field sum 0
field sqrsum 0
field min nan
field max nan
statistic Basic.rack[7].eps.queue[3] 	dropsum
field count 0
field mean nan
field stddev nan
field sum 0
field sqrsum 0
field min nan
field max nan
statistic Basic.rack[8].node[0].app 	throughput
field count 124953
field mean 62477
field stddev 36070.968430304
field sum 7806688581
field sqrsum 6.5031537440399e+014
field min 1
field max 124953
statistic Basic.rack[8].node[0].app 	"End-to-End Delay"
field count 124953
field mean 1.7723161201609e-005
field stddev 1.7659452068555e-005
field sum 2.2145621616246
field sqrsum 7.8216104001783e-005
field min 4e-007
field max 0.000183139304
statistic Basic.rack[8].node[0].app 	hops
field count 124953
field mean 3.0027290261138
field stddev 0.70900605640471
field sum 375200
field sqrsum 1189436
field min 2
field max 4
statistic Basic.rack[8].node[1].app 	throughput
field count 125136
field mean 62568.5
field stddev 36123.795979935
field sum 7829571816
field sqrsum 6.5317680903526e+014
field min 1
field max 125136
statistic Basic.rack[8].node[1].app 	"End-to-End Delay"
field count 125136
field mean 1.7652347243516e-005
field stddev 1.7580251587972e-005
field sum 2.2089441246646
field sqrsum 7.7667928275351e-005
field min 4e-007
field max 0.00019814163
statistic Basic.rack[8].node[1].app 	hops
field count 125136
field mean 2.9993367216468
field stddev 0.7069680130741
field sum 375325
field sqrsum 1188269
field min 2
field max 4
statistic Basic.rack[8].node[2].app 	throughput
field count 124895
field mean 62448
field stddev 36054.225272498
field sum 7799442960
field sqrsum 6.4941021880712e+014
field min 1
field max 124895
statistic Basic.rack[8].node[2].app 	"End-to-End Delay"
field count 124895
field mean 1.7676113181262e-005
field stddev 1.7574441560922e-005
field sum 2.2076581557737
field sqrsum 7.7597700683679e-005
field min 4e-007
field max 0.000183771566
statistic Basic.rack[8].node[2].app 	hops
field count 124895
field mean 3.000776652388
field stddev 0.70761572048989
field sum 374782
field sqrsum 1187174
field min 2
field max 4
statistic Basic.rack[8].node[3].app 	throughput
field count 125429
field mean 62715
field stddev 36208.377794372
field sum 7866279735
field sqrsum 6.5777568934746e+014
field min 1
field max 125429
statistic Basic.rack[8].node[3].app 	"End-to-End Delay"
field count 125429
field mean 1.7678652333006e-005
field stddev 1.7643731286819e-005
field sum 2.2174156834766
field sqrsum 7.8246814597718e-005
field min 4e-007
field max 0.000188810275
statistic Basic.rack[8].node[3].app 	hops
field count 125429
field mean 2.9995535322772
field stddev 0.70833456049065
field sum 376231
field sqrsum 1191457
field min 2
field max 4
statistic Basic.rack[8].node[4].app 	throughput
field count 124547
field mean 62274
field stddev 35953.766325658
field sum 7756039878
field sqrsum 6.4399691780347e+014
field min 1
field max 124547
statistic Basic.rack[8].node[4].app 	"End-to-End Delay"
field count 124547
field mean 1.7700792246884e-005
field stddev 1.7684270355937e-005
field sum 2.2045805719726
field sqrsum 7.7972518976956e-005
field min 4e-007
field max 0.000184190818
statistic Basic.rack[8].node[4].app 	hops
field count 124547
field mean 2.9991167992806
field stddev 0.70781555873669
field sum 373531
field sqrsum 1182661
field min 2
field max 4
statistic Basic.rack[8].node[5].app 	throughput
field count 124772
field mean 62386.5
field stddev 36018.718230942
field sum 7784088378
field sqrsum 6.4749344476267e+014
field min 1
field max 124772
statistic Basic.rack[8].node[5].app 	"End-to-End Delay"
field count 124772
field mean 1.7676163328492e-005
field stddev 1.7576704992957e-005
field sum 2.2054902508226
field sqrsum 7.7531428306244e-005
field min 4e-007
field max 0.000176999121
statistic Basic.rack[8].node[5].app 	hops
field count 124772
field mean 3.0001282338986
field stddev 0.70733625540711
field sum 374332
field sqrsum 1185470
field min 2
field max 4
statistic Basic.rack[8].node[6].app 	throughput
field count 125294
field mean 62647.5
field stddev 36169.406651202
field sum 7849355865
field sqrsum 6.556540789515e+014
field min 1
field max 125294
statistic Basic.rack[8].node[6].app 	"End-to-End Delay"
field count 125294
field mean 1.7679512924199e-005
field stddev 1.7681667579938e-005
field sum 2.2151368923246
field sqrsum 7.8334316288597e-005
field min 4e-007
field max 0.00018389444
statistic Basic.rack[8].node[6].app 	hops
field count 125294
field mean 3.0006624419366
field stddev 0.70872152590615
field sum 375965
field sqrsum 1191077
field min 2
field max 4
statistic Basic.rack[8].node[7].app 	throughput
field count 124996
field mean 62498.5
field stddev 36083.381461092
field sum 7812062506
field sqrsum 6.5098698068749e+014
field min 1
field max 124996
statistic Basic.rack[8].node[7].app 	"End-to-End Delay"
field count 124996
field mean 1.7653464982428e-005
field stddev 1.7584026862046e-005
field sum 2.2066125089436
field sqrsum 7.7602560752065e-005
field min 4e-007
field max 0.000210542257
statistic Basic.rack[8].node[7].app 	hops
field count 124996
field mean 3.0010640340491
field stddev 0.7066957227984
field sum 375121
field sqrsum 1188187
field min 2
field max 4
statistic Basic.rack[8].node[8].app 	throughput
field count 125714
field mean 62857.5
field stddev 36290.650207733
field sum 7902067755
field sqrsum 6.6226966452396e+014
field min 1
field max 125714
statistic Basic.rack[8].node[8].app 	"End-to-End Delay"
field count 125714
field mean 1.7710709997913e-005
field stddev 1.7687154984821e-005
field sum 2.2264841966776
field sqrsum 7.8760099031314e-005
field min 4e-007
field max 0.000194402634
statistic Basic.rack[8].node[8].app 	hops
field count 125714
field mean 3.0024181873141
field stddev 0.70545547271395
field sum 377446
field sqrsum 1195814
field min 2
field max 4
statistic Basic.rack[8].node[9].app 	throughput
field count 125654
field mean 62827.5
field stddev 36273.329699657
field sum 7894526685
field sqrsum 6.6132186889356e+014
field min 1
field max 125654
statistic Basic.rack[8].node[9].app 	"End-to-End Delay"
field count 125654
field mean 1.7688285953878e-005
field stddev 1.7594038217845e-005
field sum 2.2226038832486
field sqrsum 7.8209961918547e-005
field min 4e-007
field max 0.000183748006
statistic Basic.rack[8].node[9].app 	hops
field count 125654
field mean 3.0020373406338
field stddev 0.70672951964325
field sum 377218
field sqrsum 1195182
field min 2
field max 4
statistic Basic.rack[8].eps.queue[0] 	dropsum
field count 0
field mean nan
field stddev nan
field sum 0
field sqrsum 0
field min nan
field max nan
statistic Basic.rack[8].eps.queue[1] 	dropsum
field count 0
field mean nan
field stddev nan
field sum 0
field sqrsum 0
field min nan
field max nan
statistic Basic.rack[8].eps.queue[2] 	dropsum
field count 0
field mean nan
field stddev nan
field sum 0
field sqrsum 0
field min nan
field max nan
statistic Basic.rack[8].eps.queue[3] 	dropsum
field count 0
field mean nan
field stddev nan
field sum 0
field sqrsum 0
field min nan
field max nan
statistic Basic.rack[9].node[0].app 	throughput
field count 124909
field mean 62455
field stddev 36058.266724382
field sum 7801191595
field sqrsum 6.4962862769044e+014
field min 1
field max 124909
statistic Basic.rack[9].node[0].app 	"End-to-End Delay"
field count 124909
field mean 1.747049236901e-005
field stddev 1.7424545954623e-005
field sum 2.1822217313207
field sqrsum 7.6048405758361e-005
field min 4e-007
field max 0.000248451993
statistic Basic.rack[9].node[0].app 	hops
field count 124909
field mean 2.9989432306719
field stddev 0.70486065989264
field sum 374595
field sqrsum 1185447
field min 2
field max 4
statistic Basic.rack[9].node[1].app 	throughput
field count 124152
field mean 62076.5
field stddev 35839.739647492
field sum 7706921628
field sqrsum 6.3788905828018e+014
field min 1
field max 124152
statistic Basic.rack[9].node[1].app 	"End-to-End Delay"
field count 124152
field mean 1.7578682539255e-005
field stddev 1.7456125487586e-005
field sum 2.1824285946136
field sqrsum 7.6195054905933e-005
field min 4e-007
field max 0.000275768155
statistic Basic.rack[9].node[1].app 	hops
field count 124152
field mean 3.0019492235324
field stddev 0.70515637830239
field sum 372698
field sqrsum 1180554
field min 2
field max 4
statistic Basic.rack[9].node[2].app 	throughput
field count 124886
field mean 62443.5
field stddev 36051.627196286
field sum 7798318941
field sqrsum 6.4926983895013e+014
field min 1
field max 124886
statistic Basic.rack[9].node[2].app 	"End-to-End Delay"
field count 124886
field mean 1.7509172395206e-005
field stddev 1.7432718980163e-005
field sum 2.1866505037476
field sqrsum 7.6238953553877e-005
field min 4e-007
field max 0.000263855963
statistic Basic.rack[9].node[2].app 	hops
field count 124886
field mean 2.9993674230899
field stddev 0.70696210081618
field sum 374579
field sqrsum 1185917
field min 2
field max 4
statistic Basic.rack[9].node[3].app 	throughput
field count 124696
field mean 62348.5
field stddev 35996.778920713
field sum 7774608556
field sqrsum 6.4631098386884e+014
field min 1
field max 124696
statistic Basic.rack[9].node[3].app 	"End-to-End Delay"
field count 124696
field mean 1.7429193127732e-005
field stddev 1.7424699732849e-005
field sum 2.1733506662557
field sqrsum 7.5739664444912e-005
field min 4e-007
field max 0.000230057314
statistic Basic.rack[9].node[3].app 	hops
field count 124696
field mean 2.9961907358696
field stddev 0.70767186994861
field sum 373613
field sqrsum 1181863
field min 2
field max 4
statistic Basic.rack[9].node[4].app 	throughput
field count 124572
field mean 62286.5
field stddev 35960.983204023
field sum 7759153878
field sqrsum 6.4438479764477e+014
field min 1
field max 124572
statistic Basic.rack[9].node[4].app 	"End-to-End Delay"
field count 124572
field mean 1.7547807406999e-005
field stddev 1.7447643253326e-005
field sum 2.1859654643047
field sqrsum 7.628083656345e-005
field min 4e-007
field max 0.000220293297
statistic Basic.rack[9].node[4].app 	hops
field count 124572
field mean 3.0011960954308
field stddev 0.70594400291811
field sum 373865
field sqrsum 1184123
field min 2
field max 4
statistic Basic.rack[9].node[5].app 	throughput
field count 125097
field mean 62549
field stddev 36112.537649686
field sum 7824692253
field sqrsum 6.5256629274644e+014
field min 1
field max 125097
statistic Basic.rack[9].node[5].app 	"End-to-End Delay"
field count 125097
field mean 1.7484751765891e-005
field stddev 1.7413370394039e-005
field sum 2.1872899916576
field sqrsum 7.6176515749126e-005
field min 4e-007
field max 0.000218292461
statistic Basic.rack[9].node[5].app 	hops
field count 125097
field mean 2.9995203721912
field stddev 0.70764905184983
field sum 375231
field sqrsum 1188157
field min 2
field max 4
statistic Basic.rack[9].node[6].app 	throughput
field count 125111
field mean 62556
field stddev 36116.579101571
field sum 7826443716
field sqrsum 6.5278540864956e+014
field min 1
field max 125111
statistic Basic.rack[9].node[6].app 	"End-to-End Delay"
field count 125111
field mean 1.7435083754663e-005
field stddev 1.7391944579574e-005
field sum 2.1813207636296
field sqrsum 7.5874750013029e-005
field min 4e-007
field max 0.000220018825
statistic Basic.rack[9].node[6].app 	hops
field count 125111
field mean 2.9967548816651
field stddev 0.7077264219809
field sum 374927
field sqrsum 1186229
field min 2
field max 4
statistic Basic.rack[9].node[7].app 	throughput
field count 125034
field mean 62517.5
field stddev 36094.351116207
field sum 7816813095
field sqrsum 6.5158087795118e+014
field min 1
field max 125034
statistic Basic.rack[9].node[7].app 	"End-to-End Delay"
field count 125034
field mean 1.7456665496046e-005
field stddev 1.7396510195278e-005
field sum 2.1826767136326
field sqrsum 7.5942065220408e-005
field min 4e-007
field max 0.000218432755
statistic Basic.rack[9].node[7].app 	hops
field count 125034
field mean 2.9969288353568
field stddev 0.70862260677918
field sum 374718
field sqrsum 1185788
field min 2
field max 4
statistic Basic.rack[9].node[8].app 	throughput
field count 124790
field mean 62395.5
field stddev 36023.914383365
field sum 7786334445
field sqrsum 6.4777371237252e+014
field min 1
field max 124790
statistic Basic.rack[9].node[8].app 	"End-to-End Delay"
field count 124790
field mean 1.7585528692464e-005
field stddev 1.7491381121804e-005
field sum 2.1944981255326
field sqrsum 7.6770406330378e-005
field min 4e-007
field max 0.00019719511
statistic Basic.rack[9].node[8].app 	hops
field count 124790
field mean 3.0025242407244
field stddev 0.7075469525156
field sum 374685
field sqrsum 1187473
field min 2
field max 4
statistic Basic.rack[9].node[9].app 	throughput
field count 124919
field mean 62460
field stddev 36061.153475728
field sum 7802440740
field sqrsum 6.4978466401362e+014
field min 1
field max 124919
statistic Basic.rack[9].node[9].app 	"End-to-End Delay"
field count 124919
field mean 1.7689030560064e-005
field stddev 1.762261243629e-005
field sum 2.2096960085326
field sqrsum 7.7881473227883e-005
field min 4e-007
field max 0.000234866478
statistic Basic.rack[9].node[9].app 	hops
field count 124919
field mean 3.0059078282727
field stddev 0.70793636031347
field sum 375495
field sqrsum 1191309
field min 2
field max 4
statistic Basic.rack[9].eps.queue[0] 	dropsum
field count 0
field mean nan
field stddev nan
field sum 0
field sqrsum 0
field min nan
field max nan
statistic Basic.rack[9].eps.queue[1] 	dropsum
field count 0
field mean nan
field stddev nan
field sum 0
field sqrsum 0
field min nan
field max nan
statistic Basic.rack[9].eps.queue[2] 	dropsum
field count 0
field mean nan
field stddev nan
field sum 0
field sqrsum 0
field min nan
field max nan
statistic Basic.rack[9].eps.queue[3] 	dropsum
field count 0
field mean nan
field stddev nan
field sum 0
field sqrsum 0
field min nan
field max nan
statistic Basic.rack[10].node[0].app 	throughput
field count 125204
field mean 62602.5
field stddev 36143.425889088
field sum 7838083410
field sqrsum 6.5424220953823e+014
field min 1
field max 125204
statistic Basic.rack[10].node[0].app 	"End-to-End Delay"
field count 125204
field mean 1.1947059988871e-005
field stddev 1.6166174940295e-005
field sum 1.4958196988466
field sqrsum 5.0591852277758e-005
field min 4e-007
field max 0.00020425612
statistic Basic.rack[10].node[0].app 	hops
field count 125204
field mean 3.2511501229993
field stddev 0.82997708596685
field sum 407057
field sqrsum 1409651
field min 2
field max 4
statistic Basic.rack[10].node[1].app 	throughput
field count 124948
field mean 62474.5
field stddev 36069.525054631
field sum 7806063826
field sqrsum 6.5023731064197e+014
field min 1
field max 124948
statistic Basic.rack[10].node[1].app 	"End-to-End Delay"
field count 124948
field mean 1.1820651566905e-005
field stddev 1.6051356581865e-005
field sum 1.4769667719816
field sqrsum 4.9650810361711e-005
field min 4e-007
field max 0.000199206761
statistic Basic.rack[10].node[1].app 	hops
field count 124948
field mean 3.2487514806159
field stddev 0.82919718443044
field sum 405925
field sqrsum 1404659
field min 2
field max 4
statistic Basic.rack[10].node[2].app 	throughput
field count 125034
field mean 62517.5
field stddev 36094.351116207
field sum 7816813095
field sqrsum 6.5158087795118e+014
field min 1
field max 125034
statistic Basic.rack[10].node[2].app 	"End-to-End Delay"
field count 125034
field mean 1.1803374482225e-005
field stddev 1.5915356796318e-005
field sum 1.4758231250106
field sqrsum 4.9090374611495e-005
field min 4e-007
field max 0.000224713784
statistic Basic.rack[10].node[2].app 	hops
field count 125034
field mean 3.2506598205288
field stddev 0.82826291440715
field sum 406443
field sqrsum 1406983
field min 2
field max 4
statistic Basic.rack[10].node[3].app 	throughput
field count 125299
field mean 62650
field stddev 36170.850026875
field sum 7849982350
field sqrsum 6.5573257564255e+014
field min 1
field max 125299
statistic Basic.rack[10].node[3].app 	"End-to-End Delay"
field count 125299
field mean 1.1873903966125e-005
field stddev 1.6113906979615e-005
field sum 1.4877882930515
field sqrsum 5.0200483165527e-005
field min 4e-007
field max 0.000240740138
statistic Basic.rack[10].node[3].app 	hops
field count 125299
field mean 3.2552773765154
field stddev 0.82816574188004
field sum 407883
field sqrsum 1413709
field min 2
field max 4
statistic Basic.rack[10].node[4].app 	throughput
field count 125007
field mean 62504
field stddev 36086.556887572
field sum 7813437528
field sqrsum 6.5115886118764e+014
field min 1
field max 125007
statistic Basic.rack[10].node[4].app 	"End-to-End Delay"
field count 125007
field mean 1.1841611405846e-005
field stddev 1.6007058716309e-005
field sum 1.4802843170106
field sqrsum 4.9558730101201e-005
field min 4e-007
field max 0.000202888378
statistic Basic.rack[10].node[4].app 	hops
field count 125007
field mean 3.2544017535018
field stddev 0.82848004036342
field sum 406823
field sqrsum 1409767
field min 2
field max 4
statistic Basic.rack[10].node[5].app 	throughput
field count 125228
field mean 62614.5
field stddev 36150.354092318
field sum 7841088606
field sqrsum 6.5461850966431e+014
field min 1
field max 125228
statistic Basic.rack[10].node[5].app 	"End-to-End Delay"
field count 125228
field mean 1.1814319863358e-005
field stddev 1.6041391954495e-005
field sum 1.4794836478486
field sqrsum 4.9703288088085e-005
field min 4e-007
field max 0.000203736478
statistic Basic.rack[10].node[5].app 	hops
field count 125228
field mean 3.2469415785607
field stddev 0.83001298030001
field sum 406608
field sqrsum 1406504
field min 2
field max 4
statistic Basic.rack[10].node[6].app 	throughput
field count 124869
field mean 62435
field stddev 36046.719718998
field sum 7796196015
field sqrsum 6.490047321967e+014
field min 1
field max 124869
statistic Basic.rack[10].node[6].app 	"End-to-End Delay"
field count 124869
field mean 1.1877135290325e-005
field stddev 1.6019636564403e-005
field sum 1.4830860065676
field sqrsum 4.9659532608387e-005
field min 4e-007
field max 0.000225515167
statistic Basic.rack[10].node[6].app 	hops
field count 124869
field mean 3.2551473944694
field stddev 0.82824902314634
field sum 406467
field sqrsum 1408769
field min 2
field max 4
statistic Basic.rack[10].node[7].app 	throughput
field count 125394
field mean 62697.5
field stddev 36198.274164661
field sum 7861890315
field sqrsum 6.5722520340284e+014
field min 1
field max 125394
statistic Basic.rack[10].node[7].app 	"End-to-End Delay"
field count 125394
field mean 1.1798198757625e-005
field stddev 1.5965258286585e-005
field sum 1.4794233350136
field sqrsum 4.9415886135388e-005
field min 4e-007
field max 0.000203038733
statistic Basic.rack[10].node[7].app 	hops
field count 125394
field mean 3.2429940826515
field stddev 0.82972483191001
field sum 406652
field sqrsum 1405096
field min 2
field max 4
statistic Basic.rack[10].node[8].app 	throughput
field count 124879
field mean 62440
field stddev 36049.606470344
field sum 7797444760
field sqrsum 6.4916066860428e+014
field min 1
field max 124879
statistic Basic.rack[10].node[8].app 	"End-to-End Delay"
field count 124879
field mean 1.1766745439903e-005
field stddev 1.5930946418829e-005
field sum 1.4694194037896
field sqrsum 4.8983702797232e-005
field min 4e-007
field max 0.000222040078
statistic Basic.rack[10].node[8].app 	hops
field count 124879
field mean 3.2485686144188
field stddev 0.82990702424516
field sum 405678
field sqrsum 1403882
field min 2
field max 4
statistic Basic.rack[10].node[9].app 	throughput
field count 124973
field mean 62487
field stddev 36076.741932996
field sum 7809187851
field sqrsum 6.506276919313e+014
field min 1
field max 124973
statistic Basic.rack[10].node[9].app 	"End-to-End Delay"
field count 124973
field mean 1.1848632575137e-005
field stddev 1.6008165192499e-005
field sum 1.4807591588126
field sqrsum 4.9570464990951e-005
field min 4e-007
field max 0.000209887208
statistic Basic.rack[10].node[9].app 	hops
field count 124973
field mean 3.2493178526562
field stddev 0.82861319874724
field sum 406077
field sqrsum 1405279
field min 2
field max 4
statistic Basic.rack[10].eps.queue[0] 	dropsum
field count 0
field mean nan
field stddev nan
field sum 0
field sqrsum 0
field min nan
field max nan
statistic Basic.rack[10].eps.queue[1] 	dropsum
field count 0
field mean nan
field stddev nan
field sum 0
field sqrsum 0
field min nan
field max nan
statistic Basic.rack[10].eps.queue[2] 	dropsum
field count 0
field mean nan
field stddev nan
field sum 0
field sqrsum 0
field min nan
field max nan
statistic Basic.rack[10].eps.queue[3] 	dropsum
field count 0
field mean nan
field stddev nan
field sum 0
field sqrsum 0
field min nan
field max nan
statistic Basic.rack[11].node[0].app 	throughput
field count 124981
field mean 62491
field stddev 36079.051334073
field sum 7810187671
field sqrsum 6.5075264693539e+014
field min 1
field max 124981
statistic Basic.rack[11].node[0].app 	"End-to-End Delay"
field count 124981
field mean 1.1861488270374e-005
field stddev 1.6011199935913e-005
field sum 1.4824606655196
field sqrsum 4.9623878048354e-005
field min 4e-007
field max 0.000161797741
statistic Basic.rack[11].node[0].app 	hops
field count 124981
field mean 3.2464774645746
field stddev 0.82961208683611
field sum 405748
field sqrsum 1403270
field min 2
field max 4
statistic Basic.rack[11].node[1].app 	throughput
field count 124910
field mean 62455.5
field stddev 36058.555399516
field sum 7801316505
field sqrsum 6.4964423019854e+014
field min 1
field max 124910
statistic Basic.rack[11].node[1].app 	"End-to-End Delay"
field count 124910
field mean 1.1770212485763e-005
field stddev 1.5958642935105e-005
field sum 1.4702172415966
field sqrsum 4.9116379151223e-005
field min 4e-007
field max 0.000190375105
statistic Basic.rack[11].node[1].app 	hops
field count 124910
field mean 3.2489632535426
field stddev 0.82954619935938
field sum 405828
field sqrsum 1404476
field min 2
field max 4
statistic Basic.rack[11].node[2].app 	throughput
field count 125693
field mean 62847
field stddev 36284.588029906
field sum 7899427971
field sqrsum 6.6193783311526e+014
field min 1
field max 125693
statistic Basic.rack[11].node[2].app 	"End-to-End Delay"
field count 125693
field mean 1.1895654662444e-005
field stddev 1.6049051367639e-005
field sum 1.4952005214866
[...]
field max 4
statistic Basic.rack[13].node[2].app 	throughput
field count 124961
field mean 62481
field stddev 36073.277831381
field sum 7807688241
field sqrsum 6.5044028941848e+014
field min 1
field max 124961
statistic Basic.rack[13].node[2].app 	"End-to-End Delay"
field count 124961
field mean 1.7491185010176e-005
field stddev 1.7381025424826e-005
field sum 2.1857159700566
field sqrsum 7.5981184012473e-005
field min 4e-007
field max 0.000205190791
statistic Basic.rack[13].node[2].app 	hops
field count 124961
field mean 2.9979273533342
field stddev 0.7075393284366
field sum 374624
field sqrsum 1185652
field min 2
field max 4
statistic Basic.rack[13].node[3].app 	throughput
field count 125283
field mean 62642
field stddev 36166.231224721
field sum 7847977686
field sqrsum 6.5548140828265e+014
field min 1
field max 125283
statistic Basic.rack[13].node[3].app 	"End-to-End Delay"
field count 125283
field mean 1.7601139493775e-005
field stddev 1.7572172200762e-005
field sum 2.2051235591987
field sqrsum 7.7497418156631e-005
field min 4e-007
field max 0.000168894627
statistic Basic.rack[13].node[3].app 	hops
field count 125283
field mean 3.0009418676117
field stddev 0.70620816764677
field sum 375967
field sqrsum 1190737
field min 2
field max 4
statistic Basic.rack[13].node[4].app 	throughput
field count 125345
field mean 62673
field stddev 36184.129083066
field sum 7855747185
field sqrsum 6.5645503918494e+014
field min 1
field max 125345
statistic Basic.rack[13].node[4].app 	"End-to-End Delay"
field count 125345
field mean 1.7582086036122e-005
field stddev 1.7475984551e-005
field sum 2.2038265741977
field sqrsum 7.7029183991975e-005
field min 4e-007
field max 0.000177025301
statistic Basic.rack[13].node[4].app 	hops
field count 125345
field mean 3.0009334237504
field stddev 0.7078222519494
field sum 376152
field sqrsum 1191606
field min 2
field max 4
statistic Basic.rack[13].node[5].app 	throughput
field count 124897
field mean 62449
field stddev 36054.802622767
field sum 7799692753
field sqrsum 6.4944141707854e+014
field min 1
field max 124897
statistic Basic.rack[13].node[5].app 	"End-to-End Delay"
field count 124897
field mean 1.7555077525094e-005
field stddev 1.7488551345934e-005
field sum 2.1925765176517
field sqrsum 7.6690220928966e-005
field min 4e-007
field max 0.000215793398
statistic Basic.rack[13].node[5].app 	hops
field count 124897
field mean 3.0008967389129
field stddev 0.7090285331193
field sum 374803
field sqrsum 1187533
field min 2
field max 4
statistic Basic.rack[13].node[6].app 	throughput
field count 124902
field mean 62451.5
field stddev 36056.24599844
field sum 7800317253
field sqrsum 6.4951941712856e+014
field min 1
field max 124902
statistic Basic.rack[13].node[6].app 	"End-to-End Delay"
field count 124902
field mean 1.7642208723941e-005
field stddev 1.7500463333443e-005
field sum 2.2035471540376
field sqrsum 7.7128395579755e-005
field min 4e-007
field max 0.000193015125
statistic Basic.rack[13].node[6].app 	hops
field count 124902
field mean 3.003754943876
field stddev 0.70732606137127
field sum 375175
field sqrsum 1189423
field min 2
field max 4
statistic Basic.rack[13].node[7].app 	throughput
field count 124667
field mean 62334
field stddev 35988.407341809
field sum 7770992778
field sqrsum 6.4586016143421e+014
field min 1
field max 124667
statistic Basic.rack[13].node[7].app 	"End-to-End Delay"
field count 124667
field mean 1.7572284346681e-005
field stddev 1.7417729782102e-005
field sum 2.1906839726476
field sqrsum 7.6316157504576e-005
field min 4e-007
field max 0.000194890474
statistic Basic.rack[13].node[7].app 	hops
field count 124667
field mean 3.0023743252023
field stddev 0.70491567632291
field sum 374297
field sqrsum 1185727
field min 2
field max 4
statistic Basic.rack[13].node[8].app 	throughput
field count 125330
field mean 62665.5
field stddev 36179.798956047
field sum 7853867115
field sqrsum 6.56219394971e+014
field min 1
field max 125330
statistic Basic.rack[13].node[8].app 	"End-to-End Delay"
field count 125330
field mean 1.7539104466126e-005
field stddev 1.7402222724837e-005
field sum 2.1981759627396
field sqrsum 7.6508340806067e-005
field min 4e-007
field max 0.000181068981
statistic Basic.rack[13].node[8].app 	hops
field count 125330
field mean 2.9992420011171
field stddev 0.70795498785151
field sum 375895
field sqrsum 1190215
field min 2
field max 4
statistic Basic.rack[13].node[9].app 	throughput
field count 124858
field mean 62429.5
field stddev 36043.544292517
field sum 7794822511
field sqrsum 6.4883323099313e+014
field min 1
field max 124858
statistic Basic.rack[13].node[9].app 	"End-to-End Delay"
field count 124858
field mean 1.7588193155486e-005
field stddev 1.7414897188092e-005
field sum 2.1960266210076
field sqrsum 7.6490602047745e-005
field min 4e-007
field max 0.000166447154
statistic Basic.rack[13].node[9].app 	hops
field count 124858
field mean 3.00014416377
field stddev 0.70737572366779
field sum 374592
field sqrsum 1186306
field min 2
field max 4
statistic Basic.rack[13].eps.queue[0] 	dropsum
field count 0
field mean nan
field stddev nan
field sum 0
field sqrsum 0
field min nan
field max nan
statistic Basic.rack[13].eps.queue[1] 	dropsum
field count 0
field mean nan
field stddev nan
field sum 0
field sqrsum 0
field min nan
field max nan
statistic Basic.rack[13].eps.queue[2] 	dropsum
field count 0
field mean nan
field stddev nan
field sum 0
field sqrsum 0
field min nan
field max nan
statistic Basic.rack[13].eps.queue[3] 	dropsum
field count 0
field mean nan
field stddev nan
field sum 0
field sqrsum 0
field min nan
field max nan
statistic Basic.rack[14].node[0].app 	throughput
field count 124366
field mean 62183.5
field stddev 35901.516126296
field sum 7733513161
field sqrsum 6.4119330969167e+014
field min 1
field max 124366
statistic Basic.rack[14].node[0].app 	"End-to-End Delay"
field count 124366
field mean 1.1887683448335e-005
field stddev 1.6068882361068e-005
field sum 1.4784236397356
field sqrsum 4.968719207093e-005
field min 4e-007
field max 0.000181068061
statistic Basic.rack[14].node[0].app 	hops
field count 124366
field mean 3.2480742325073
field stddev 0.82928941423783
field sum 403950
field sqrsum 1397588
field min 2
field max 4
statistic Basic.rack[14].node[1].app 	throughput
field count 124925
field mean 62463
field stddev 36062.885526535
field sum 7803190275
field sqrsum 6.4987829779968e+014
field min 1
field max 124925
statistic Basic.rack[14].node[1].app 	"End-to-End Delay"
field count 124925
field mean 1.191334794903e-005
field stddev 1.6140389285264e-005
field sum 1.4882749925326
field sqrsum 5.0274559690227e-005
field min 4e-007
field max 0.000168987501
statistic Basic.rack[14].node[1].app 	hops
field count 124925
field mean 3.247580548329
field stddev 0.83030585311328
field sum 405704
field sqrsum 1403680
field min 2
field max 4
statistic Basic.rack[14].node[2].app 	throughput
field count 124721
field mean 62361
field stddev 36003.995799078
field sum 7777726281
field sqrsum 6.4669979223716e+014
field min 1
field max 124721
statistic Basic.rack[14].node[2].app 	"End-to-End Delay"
field count 124721
field mean 1.184709283288e-005
field stddev 1.6050071660881e-005
field sum 1.4775812652096
field sqrsum 4.9633513112897e-005
field min 4e-007
field max 0.000165245539
statistic Basic.rack[14].node[2].app 	hops
field count 124721
field mean 3.2503507829475
field stddev 0.8285760211623
field sum 405387
field sqrsum 1403275
field min 2
field max 4
statistic Basic.rack[14].node[3].app 	throughput
field count 125520
field mean 62760.5
field stddev 36234.647231621
field sum 7877697960
field sqrsum 6.5920839119212e+014
field min 1
field max 125520
statistic Basic.rack[14].node[3].app 	"End-to-End Delay"
field count 125520
field mean 1.1869495957796e-005
field stddev 1.6010769843222e-005
field sum 1.4898591326225
field sqrsum 4.9860013749684e-005
field min 4e-007
field max 0.000189745509
statistic Basic.rack[14].node[3].app 	hops
field count 125520
field mean 3.2562061822817
field stddev 0.82676674551643
field sum 408719
field sqrsum 1416671
field min 2
field max 4
statistic Basic.rack[14].node[4].app 	throughput
field count 124927
field mean 62464
field stddev 36063.462876805
field sum 7803440128
field sqrsum 6.4990951106048e+014
field min 1
field max 124927
statistic Basic.rack[14].node[4].app 	"End-to-End Delay"
field count 124927
field mean 1.1873997960958e-005
field stddev 1.6077388928124e-005
field sum 1.4833829432686
field sqrsum 4.9904862686788e-005
field min 4e-007
field max 0.000184332484
statistic Basic.rack[14].node[4].app 	hops
field count 124927
field mean 3.2521552586711
field stddev 0.82801252138859
field sum 406282
field sqrsum 1406942
field min 2
field max 4
statistic Basic.rack[14].node[5].app 	throughput
field count 124541
field mean 62271
field stddev 35952.03427485
field sum 7755292611
field sqrsum 6.4390384980857e+014
field min 1
field max 124541
statistic Basic.rack[14].node[5].app 	"End-to-End Delay"
field count 124541
field mean 1.1910261878326e-005
field stddev 1.6010261689666e-005
field sum 1.4833159245885
field sqrsum 4.9589829931077e-005
field min 4e-007
field max 0.000171434795
statistic Basic.rack[14].node[5].app 	hops
field count 124541
field mean 3.2544222384596
field stddev 0.82817330370795
field sum 405309
field sqrsum 1404465
field min 2
field max 4
statistic Basic.rack[14].node[6].app 	throughput
field count 124932
field mean 62466.5
field stddev 36064.906252478
field sum 7804064778
field sqrsum 6.4998754858499e+014
field min 1
field max 124932
statistic Basic.rack[14].node[6].app 	"End-to-End Delay"
field count 124932
field mean 1.1882023205076e-005
field stddev 1.6023879005277e-005
field sum 1.4844449230565
field sqrsum 4.9716079555195e-005
field min 4e-007
field max 0.000184122746
statistic Basic.rack[14].node[6].app 	hops
field count 124932
field mean 3.2481189767233
field stddev 0.82843545566578
field sum 405794
field sqrsum 1403808
field min 2
field max 4
statistic Basic.rack[14].node[7].app 	throughput
field count 125352
field mean 62676.5
field stddev 36186.149809008
field sum 7856624628
field sqrsum 6.5656502578758e+014
field min 1
field max 125352
statistic Basic.rack[14].node[7].app 	"End-to-End Delay"
field count 125352
field mean 1.1838504025389e-005
field stddev 1.6027570089727e-005
field sum 1.4839801565906
field sqrsum 4.9768646364081e-005
field min 4e-007
field max 0.000164857601
statistic Basic.rack[14].node[7].app 	hops
field count 125352
field mean 3.249082583445
field stddev 0.82921912841279
field sum 407279
field sqrsum 1409475
field min 2
field max 4
statistic Basic.rack[14].node[8].app 	throughput
field count 124580
field mean 62290.5
field stddev 35963.292605099
field sum 7760150490
field sqrsum 6.4450895207963e+014
field min 1
field max 124580
statistic Basic.rack[14].node[8].app 	"End-to-End Delay"
field count 124580
field mean 1.1882207156827e-005
field stddev 1.6055964299651e-005
field sum 1.4802853675976
field sqrsum 4.9704774818355e-005
field min 4e-007
field max 0.000194448688
statistic Basic.rack[14].node[8].app 	hops
field count 124580
field mean 3.2497270829989
field stddev 0.8294837282617
field sum 404851
field sqrsum 1401371
field min 2
field max 4
statistic Basic.rack[14].node[9].app 	throughput
field count 125202
field mean 62601.5
field stddev 36142.848538819
field sum 7837833003
field sqrsum 6.542108577054e+014
field min 1
field max 125202
statistic Basic.rack[14].node[9].app 	"End-to-End Delay"
field count 125202
field mean 1.1834370891101e-005
field stddev 1.6084216512156e-005
field sum 1.4816869043076
field sqrsum 4.9924584077484e-005
field min 4e-007
field max 0.000185822006
statistic Basic.rack[14].node[9].app 	hops
field count 125202
field mean 3.2520566764109
field stddev 0.82888598954071
field sum 407164
field sqrsum 1410140
field min 2
field max 4
statistic Basic.rack[14].eps.queue[0] 	dropsum
field count 0
field mean nan
field stddev nan
field sum 0
field sqrsum 0
field min nan
field max nan
statistic Basic.rack[14].eps.queue[1] 	dropsum
field count 0
field mean nan
field stddev nan
field sum 0
field sqrsum 0
field min nan
field max nan
statistic Basic.rack[14].eps.queue[2] 	dropsum
field count 0
field mean nan
field stddev nan
field sum 0
field sqrsum 0
field min nan
field max nan
statistic Basic.rack[14].eps.queue[3] 	dropsum
field count 0
field mean nan
field stddev nan
field sum 0
field sqrsum 0
field min nan
field max nan
statistic Basic.rack[15].node[0].app 	throughput
field count 124695
field mean 62348
field stddev 35996.490245578
field sum 7774483860
field sqrsum 6.4629543477642e+014
field min 1
field max 124695
statistic Basic.rack[15].node[0].app 	"End-to-End Delay"
field count 124695
field mean 1.1884557165384e-005
field stddev 1.6075845587445e-005
field sum 1.4819448557375
field sqrsum 4.9837279332609e-005
field min 4e-007
field max 0.000189515093
statistic Basic.rack[15].node[0].app 	hops
field count 124695
field mean 3.24691447131
field stddev 0.82928978354075
field sum 404874
field sqrsum 1400346
field min 2
field max 4
statistic Basic.rack[15].node[1].app 	throughput
field count 125400
field mean 62700.5
field stddev 36200.006215469
field sum 7862642700
field sqrsum 6.573195506009e+014
field min 1
field max 125400
statistic Basic.rack[15].node[1].app 	"End-to-End Delay"
field count 125400
field mean 1.1821222281257e-005
field stddev 1.6038886643891e-005
field sum 1.4823812740696
field sqrsum 4.9781935251324e-005
field min 4e-007
field max 0.00016686615
statistic Basic.rack[15].node[1].app 	hops
field count 125400
field mean 3.2507336523126
field stddev 0.83000509890851
field sum 407642
field sqrsum 1411524
field min 2
field max 4
statistic Basic.rack[15].node[2].app 	throughput
field count 124815
field mean 62408
field stddev 36031.13126173
field sum 7789454520
field sqrsum 6.4816310709404e+014
field min 1
field max 124815
statistic Basic.rack[15].node[2].app 	"End-to-End Delay"
field count 124815
field mean 1.1916333357013e-005
field stddev 1.6175809205017e-005
field sum 1.4873371479555
field sqrsum 5.0382037533508e-005
field min 4e-007
field max 0.000191028701
statistic Basic.rack[15].node[2].app 	hops
field count 124815
field mean 3.2522613467933
field stddev 0.829135297951
field sum 405931
field sqrsum 1405999
field min 2
field max 4
statistic Basic.rack[15].node[3].app 	throughput
field count 125527
field mean 62764
field stddev 36236.667957563
field sum 7878576628
field sqrsum 6.5931868511418e+014
field min 1
field max 125527
statistic Basic.rack[15].node[3].app 	"End-to-End Delay"
field count 125527
field mean 1.1854206619003e-005
field stddev 1.612933853591e-005
field sum 1.4880229942636
field sqrsum 5.0295619053981e-005
field min 4e-007
field max 0.000194734856
statistic Basic.rack[15].node[3].app 	hops
field count 125527
field mean 3.2441466776072
field stddev 0.83191634274547
field sum 407228
field sqrsum 1407982
field min 2
field max 4
statistic Basic.rack[15].node[4].app 	throughput
field count 124797
field mean 62399
field stddev 36025.935109307
field sum 7787208003
field sqrsum 6.478827271696e+014
field min 1
field max 124797
statistic Basic.rack[15].node[4].app 	"End-to-End Delay"
field count 124797
field mean 1.1940276281237e-005
field stddev 1.6234776168126e-005
field sum 1.4901106590695
field sqrsum 5.0684559749275e-005
field min 4e-007
field max 0.000199792487
statistic Basic.rack[15].node[4].app 	hops
field count 124797
field mean 3.2490765002364
field stddev 0.82912940849623
field sum 405475
field sqrsum 1403211
field min 2
field max 4
statistic Basic.rack[15].node[5].app 	throughput
field count 125318
field mean 62659.5
field stddev 36176.334854432
field sum 7852363221
field sqrsum 6.5603092020726e+014
field min 1
field max 125318
statistic Basic.rack[15].node[5].app 	"End-to-End Delay"
field count 125318
field mean 1.189217558427e-005
field stddev 1.6168331598007e-005
field sum 1.4903036598696
field sqrsum 5.0482689668031e-005
field min 4e-007
field max 0.000202081496
statistic Basic.rack[15].node[5].app 	hops
field count 125318
field mean 3.2497645988605
field stddev 0.82837113930258
field sum 407254
field sqrsum 1409472
field min 2
field max 4
statistic Basic.rack[15].node[6].app 	throughput
field count 125277
field mean 62639
field stddev 36164.499173914
field sum 7847226003
field sqrsum 6.5538723706056e+014
field min 1
field max 125277
statistic Basic.rack[15].node[6].app 	"End-to-End Delay"
field count 125277
field mean 1.1814314755578e-005
field stddev 1.5998558064566e-005
field sum 1.4800619096346
field sqrsum 4.9550793041727e-005
field min 4e-007
field max 0.000174257136
statistic Basic.rack[15].node[6].app 	hops
field count 125277
field mean 3.2475633995067
field stddev 0.83005497235175
field sum 406845
field sqrsum 1407569
field min 2
field max 4
statistic Basic.rack[15].node[7].app 	throughput
field count 125129
field mean 62565
field stddev 36121.775253993
field sum 7828695885
field sqrsum 6.530672011614e+014
field min 1
field max 125129
statistic Basic.rack[15].node[7].app 	"End-to-End Delay"
field count 125129
field mean 1.1914614526909e-005
field stddev 1.6121534639093e-005
field sum 1.4908638011376
field sqrsum 5.0284320089139e-005
field min 4e-007
field max 0.000192714712
statistic Basic.rack[15].node[7].app 	hops
field count 125129
field mean 3.2489430907304
field stddev 0.82869304814866
field sum 406537
field sqrsum 1406745
field min 2
field max 4
statistic Basic.rack[15].node[8].app 	throughput
field count 124764
field mean 62382.5
field stddev 36016.408829865
field sum 7783090230
field sqrsum 6.4736890733389e+014
field min 1
field max 124764
statistic Basic.rack[15].node[8].app 	"End-to-End Delay"
field count 124764
field mean 1.1859026177131e-005
field stddev 1.6071791163501e-005
field sum 1.4795795419636
field sqrsum 4.9772963734018e-005
field min 4e-007
field max 0.000175318787
statistic Basic.rack[15].node[8].app 	hops
field count 124764
field mean 3.2494469558526
field stddev 0.82922458341785
field sum 405414
field sqrsum 1403160
field min 2
field max 4
statistic Basic.rack[15].node[9].app 	throughput
field count 125230
field mean 62615.5
field stddev 36150.931442588
field sum 7841339065
field sqrsum 6.5464987451966e+014
field min 1
field max 125230
statistic Basic.rack[15].node[9].app 	"End-to-End Delay"
field count 125230
field mean 1.1878607774188e-005
field stddev 1.6041679836056e-005
field sum 1.4875580515616
field sqrsum 4.9895984958808e-005
field min 4e-007
field max 0.000186853349
statistic Basic.rack[15].node[9].app 	hops
field count 125230
field mean 3.2532220713886
field stddev 0.829570876437
field sum 407401
field sqrsum 1411547
field min 2
field max 4
statistic Basic.rack[15].eps.queue[0] 	dropsum
field count 0
field mean nan
field stddev nan
field sum 0
field sqrsum 0
field min nan
field max nan
statistic Basic.rack[15].eps.queue[1] 	dropsum
field count 0
field mean nan
field stddev nan
field sum 0
field sqrsum 0
field min nan
field max nan
statistic Basic.rack[15].eps.queue[2] 	dropsum
field count 0
field mean nan
field stddev nan
field sum 0
field sqrsum 0
field min nan
field max nan
statistic Basic.rack[15].eps.queue[3] 	dropsum
field count 0
field mean nan
field stddev nan
field sum 0
field sqrsum 0
field min nan
field max nan
