version 2
run Basic-13-20180510-16:07:46-19272
attr configname Basic
attr datetime 20180510-16:07:46
attr experiment Basic
attr inifile omnetpp.ini
attr iterationvars "$0=exponential(0.5 ms), $1=7, $2=3"
attr iterationvarsf exponential(0.5_ms),7,3-
attr measurement "$0=exponential(0.5 ms), $1=7, $2=3"
attr network Networks.Basic
attr processid 19272
attr repetition 0
attr replication #0
attr resultdir results
attr runnumber 13
attr seedset 13
param **.frameCapacity 50
param **.packetLength "1024 bytes"
param **.pattern 7
param **.sendIaTime "exponential(0.5 ms)"
param **.tp 3

statistic Basic.rack[0].node[0].app 	throughput
field count 19951
field mean 9976
field stddev 5759.5019460598
field sum 199031176
field sqrsum 2647313671976
field min 1
field max 19951
statistic Basic.rack[0].node[0].app 	"End-to-End Delay"
field count 19951
field mean 9.3495024653419e-006
field stddev 6.5662168432926e-006
field sum 0.18653192368604
field sqrsum 2.6041289928487e-006
field min 4e-007
field max 4.3153611e-005
statistic Basic.rack[0].node[0].app 	hops
field count 19951
field mean 2.9919302290612
field stddev 0.70564145499074
field sum 59692
field sqrsum 188528
field min 2
field max 4
statistic Basic.rack[0].node[1].app 	throughput
field count 19960
field mean 9980.5
field stddev 5762.100022272
field sum 199210780
field sqrsum 2650897849460
field min 1
field max 19960
statistic Basic.rack[0].node[1].app 	"End-to-End Delay"
field count 19960
field mean 9.4732672060638e-006
field stddev 6.5810667931542e-006
field sum 0.18908641343303
field sqrsum 2.6556991941609e-006
field min 4e-007
field max 3.7946452e-005
statistic Basic.rack[0].node[1].app 	hops
field count 19960
field mean 3.0042084168337
field stddev 0.70902248629062
field sum 59964
field sqrsum 190178
field min 2
field max 4
statistic Basic.rack[0].node[2].app 	throughput
field count 19962
field mean 9981.5
field stddev 5762.6773725413
field sum 199250703
field sqrsum 2651694772425
field min 1
field max 19962
statistic Basic.rack[0].node[2].app 	"End-to-End Delay"
field count 19962
field mean 9.4331604224044e-006
field stddev 6.548342406342e-006
field sum 0.18830474835204
field sqrsum 2.6322523141766e-006
field min 4e-007
field max 4.0910228e-005
statistic Basic.rack[0].node[2].app 	hops
field count 19962
field mean 2.9999499048192
field stddev 0.70499587580766
field sum 59885
field sqrsum 189573
field min 2
field max 4
statistic Basic.rack[0].node[3].app 	throughput
field count 19853
field mean 9927
field stddev 5731.2117828606
field sum 197080731
field sqrsum 2608494861939
field min 1
field max 19853
statistic Basic.rack[0].node[3].app 	"End-to-End Delay"
field count 19853
field mean 9.4409812569906e-006
field stddev 6.522515252671e-006
field sum 0.18743180089503
field sqrsum 2.6141078292678e-006
field min 4e-007
field max 3.5939234e-005
statistic Basic.rack[0].node[3].app 	hops
field count 19853
field mean 3.0023170301718
field stddev 0.70453374120412
field sum 59605
field sqrsum 188807
field min 2
field max 4
statistic Basic.rack[0].node[4].app 	throughput
field count 20086
field mean 10043.5
field stddev 5798.4730892423
field sum 201733741
field sqrsum 2701416525731
field min 1
field max 20086
statistic Basic.rack[0].node[4].app 	"End-to-End Delay"
field count 20086
field mean 9.3805442999619e-006
field stddev 6.5252321398965e-006
field sum 0.18841761280904
field sqrsum 2.6226520390697e-006
field min 4e-007
field max 4.2223627e-005
statistic Basic.rack[0].node[4].app 	hops
field count 20086
field mean 2.998805137907
field stddev 0.70694732790826
field sum 60234
field sqrsum 190668
field min 2
field max 4
statistic Basic.rack[0].node[5].app 	throughput
field count 20188
field mean 10094.5
field stddev 5827.91795298
field sum 203787766
field sqrsum 2742779542594
field min 1
field max 20188
statistic Basic.rack[0].node[5].app 	"End-to-End Delay"
field count 20188
field mean 9.3419856245808e-006
field stddev 6.4771695576299e-006
field sum 0.18859600578904
field sqrsum 2.6087810311647e-006
field min 4e-007
field max 3.8619997e-005
statistic Basic.rack[0].node[5].app 	hops
field count 20188
field mean 2.9933623935011
field stddev 0.70231310641809
field sum 60430
field sqrsum 190846
field min 2
field max 4
statistic Basic.rack[0].node[6].app 	throughput
field count 20110
field mean 10055.5
field stddev 5805.4012924747
field sum 202216105
field sqrsum 2711111319735
field min 1
field max 20110
statistic Basic.rack[0].node[6].app 	"End-to-End Delay"
field count 20110
field mean 9.3767849444572e-006
field stddev 6.5559169348879e-006
field sum 0.18856714523303
field sqrsum 2.6324393306908e-006
field min 4e-007
field max 3.9317486e-005
statistic Basic.rack[0].node[6].app 	hops
field count 20110
field mean 2.9975136747887
field stddev 0.71052261972743
field sum 60280
field sqrsum 190842
field min 2
field max 4
statistic Basic.rack[0].node[7].app 	throughput
field count 20080
field mean 10040.5
field stddev 5796.7410384342
field sum 201613240
field sqrsum 2698996443880
field min 1
field max 20080
statistic Basic.rack[0].node[7].app 	"End-to-End Delay"
field count 20080
field mean 9.4156937874519e-006
field stddev 6.5592395123273e-006
field sum 0.18906713125203
field sqrsum 2.6440695389581e-006
field min 4e-007
field max 4.2523092e-005
statistic Basic.rack[0].node[7].app 	hops
field count 20080
field mean 2.9985557768924
field stddev 0.70595984844142
field sum 60211
field sqrsum 190553
field min 2
field max 4
statistic Basic.rack[0].node[8].app 	throughput
field count 20100
field mean 10050.5
field stddev 5802.5145411278
field sum 202015050
field sqrsum 2707069008350
field min 1
field max 20100
statistic Basic.rack[0].node[8].app 	"End-to-End Delay"
field count 20100
field mean 9.4188986506485e-006
field stddev 6.5891070791063e-006
field sum 0.18931986287803
field sqrsum 2.6558094598793e-006
field min 4e-007
field max 3.7828746e-005
statistic Basic.rack[0].node[8].app 	hops
field count 20100
field mean 3.0005970149254
field stddev 0.71321922824384
field sum 60312
field sqrsum 191196
field min 2
field max 4
statistic Basic.rack[0].node[9].app 	throughput
field count 19985
field mean 9993
field stddev 5769.3169006391
field sum 199710105
field sqrsum 2660870868985
field min 1
field max 19985
statistic Basic.rack[0].node[9].app 	"End-to-End Delay"
field count 19985
field mean 9.4319826093087e-006
field stddev 6.5991523958614e-006
field sum 0.18849817244703
field sqrsum 2.6481909502855e-006
field min 4e-007
field max 3.7801028e-005
statistic Basic.rack[0].node[9].app 	hops
field count 19985
field mean 3.0008006004503
field stddev 0.71148037427467
field sum 59971
field sqrsum 190077
field min 2
field max 4
statistic Basic.rack[0].eps.queue[0] 	dropsum
field count 0
field mean nan
field stddev nan
field sum 0
field sqrsum 0
field min nan
field max nan
statistic Basic.rack[0].eps.queue[1] 	dropsum
field count 0
field mean nan
field stddev nan
field sum 0
field sqrsum 0
field min nan
field max nan
statistic Basic.rack[0].eps.queue[2] 	dropsum
field count 0
field mean nan
field stddev nan
field sum 0
field sqrsum 0
field min nan
field max nan
statistic Basic.rack[0].eps.queue[3] 	dropsum
field count 0
field mean nan
field stddev nan
field sum 0
field sqrsum 0
field min nan
field max nan
statistic Basic.rack[1].node[0].app 	throughput
field count 19861
field mean 9931
field stddev 5733.5211839381
field sum 197239591
field sqrsum 2611649424431
field min 1
field max 19861
statistic Basic.rack[1].node[0].app 	"End-to-End Delay"
field count 19861
field mean 9.4298519816743e-006
field stddev 6.5623770730441e-006
field sum 0.18728629020803
field sqrsum 2.6213487808361e-006
field min 4e-007
field max 4.2149474e-005
statistic Basic.rack[1].node[0].app 	hops
field count 19861
field mean 3.0005034993203
field stddev 0.7081739337859
field sum 59593
field sqrsum 188769
field min 2
field max 4
statistic Basic.rack[1].node[1].app 	throughput
field count 20047
field mean 10024
field stddev 5787.2147589896
field sum 200951128
field sqrsum 2685711825720
field min 1
field max 20047
statistic Basic.rack[1].node[1].app 	"End-to-End Delay"
field count 20047
field mean 9.4528007334781e-006
field stddev 6.564557770876e-006
field sum 0.18950029630404
field sqrsum 2.6551592117019e-006
field min 4e-007
field max 3.8207945e-005
statistic Basic.rack[1].node[1].app 	hops
field count 20047
field mean 3.003441911508
field stddev 0.70949302364359
field sum 60210
field sqrsum 190928
field min 2
field max 4
statistic Basic.rack[1].node[2].app 	throughput
field count 20063
field mean 10032
field stddev 5791.8335611445
field sum 201272016
field sqrsum 2692147395344
field min 1
field max 20063
statistic Basic.rack[1].node[2].app 	"End-to-End Delay"
field count 20063
field mean 9.4053515120387e-006
field stddev 6.5640381738448e-006
field sum 0.18869956738603
field sqrsum 2.6391890734123e-006
field min 4e-007
field max 4.3740346e-005
statistic Basic.rack[1].node[2].app 	hops
field count 20063
field mean 2.9988037681304
field stddev 0.70953358413117
field sum 60165
field sqrsum 190523
field min 2
field max 4
statistic Basic.rack[1].node[3].app 	throughput
field count 20061
field mean 10031
field stddev 5791.2562108751
field sum 201231891
field sqrsum 2691342387531
field min 1
field max 20061
statistic Basic.rack[1].node[3].app 	"End-to-End Delay"
field count 20061
field mean 9.3561717145224e-006
field stddev 6.5321879825822e-006
field sum 0.18769416076503
field sqrsum 2.612048563517e-006
field min 4e-007
field max 3.9112861e-005
statistic Basic.rack[1].node[3].app 	hops
field count 20061
field mean 2.9922735656248
field stddev 0.70519375029649
field sum 60028
field sqrsum 189596
field min 2
field max 4
statistic Basic.rack[1].node[4].app 	throughput
field count 19971
field mean 9986
field stddev 5765.2754487535
field sum 199430406
field sqrsum 2655282902286
field min 1
field max 19971
statistic Basic.rack[1].node[4].app 	"End-to-End Delay"
field count 19971
field mean 9.4229229174819e-006
field stddev 6.5943383775199e-006
field sum 0.18818519358503
field sqrsum 2.6416559871487e-006
field min 4e-007
field max 4.3783367e-005
statistic Basic.rack[1].node[4].app 	hops
field count 19971
field mean 3.0016523959742
field stddev 0.71288820156357
field sum 59946
field sqrsum 190086
field min 2
field max 4
statistic Basic.rack[1].node[5].app 	throughput
field count 20362
field mean 10181.5
field stddev 5878.1474264148
field sum 207315703
field sqrsum 2814310668225
field min 1
field max 20362
statistic Basic.rack[1].node[5].app 	"End-to-End Delay"
field count 20362
field mean 9.4754788015439e-006
field stddev 6.5224962119992e-006
field sum 0.19293969935704
field sqrsum 2.6944131753624e-006
field min 4e-007
field max 3.9239228e-005
statistic Basic.rack[1].node[5].app 	hops
field count 20362
field mean 3.0066299970533
field stddev 0.7043092485739
field sum 61221
field sqrsum 194169
field min 2
field max 4
statistic Basic.rack[1].node[6].app 	throughput
field count 19969
field mean 9985
field stddev 5764.6980984841
field sum 199390465
field sqrsum 2654485260545
field min 1
field max 19969
statistic Basic.rack[1].node[6].app 	"End-to-End Delay"
field count 19969
field mean 9.3958105779475e-006
field stddev 6.5111684550929e-006
field sum 0.18762494143103
field sqrsum 2.6094380523276e-006
field min 4e-007
field max 3.8288829e-005
statistic Basic.rack[1].node[6].app 	hops
field count 19969
field mean 2.9972958085032
field stddev 0.7034090940902
field sum 59853
field sqrsum 189277
field min 2
field max 4
statistic Basic.rack[1].node[7].app 	throughput
field count 20126
field mean 10063.5
field stddev 5810.0200946296
field sum 202538001
field sqrsum 2717587384751
field min 1
field max 20126
statistic Basic.rack[1].node[7].app 	"End-to-End Delay"
field count 20126
field mean 9.5014882658767e-006
field stddev 6.5355810430869e-006
field sum 0.19122695283903
field sqrsum 2.6765562673809e-006
field min 4e-007
field max 3.4014337e-005
statistic Basic.rack[1].node[7].app 	hops
field count 20126
field mean 3.009838020471
field stddev 0.70709104272747
field sum 60576
field sqrsum 192386
field min 2
field max 4
statistic Basic.rack[1].node[8].app 	throughput
field count 19903
field mean 9952
field stddev 5745.6455395949
field sum 198074656
field sqrsum 2628252610464
field min 1
field max 19903
statistic Basic.rack[1].node[8].app 	"End-to-End Delay"
field count 19903
field mean 9.4282127721465e-006
field stddev 6.5586772576119e-006
field sum 0.18764971880403
field sqrsum 2.625310830666e-006
field min 4e-007
field max 4.033829e-005
statistic Basic.rack[1].node[8].app 	hops
field count 19903
field mean 2.9995980505451
field stddev 0.70593322178301
field sum 59701
field sqrsum 188997
field min 2
field max 4
statistic Basic.rack[1].node[9].app 	throughput
field count 20175
field mean 10088
field stddev 5824.1651762291
field sum 203525400
field sqrsum 2737484471800
field min 1
field max 20175
statistic Basic.rack[1].node[9].app 	"End-to-End Delay"
field count 20175
field mean 9.4114231113277e-006
field stddev 6.5292650957523e-006
field sum 0.18987546127104
field sqrsum 2.6470422049606e-006
field min 4e-007
field max 4.356848e-005
statistic Basic.rack[1].node[9].app 	hops
field count 20175
field mean 2.9989095415118
field stddev 0.70369783423785
field sum 60503
field sqrsum 191433
field min 2
field max 4
statistic Basic.rack[1].eps.queue[0] 	dropsum
field count 0
field mean nan
field stddev nan
field sum 0
field sqrsum 0
field min nan
field max nan
statistic Basic.rack[1].eps.queue[1] 	dropsum
field count 0
field mean nan
field stddev nan
field sum 0
field sqrsum 0
field min nan
field max nan
statistic Basic.rack[1].eps.queue[2] 	dropsum
field count 0
field mean nan
field stddev nan
field sum 0
field sqrsum 0
field min nan
field max nan
statistic Basic.rack[1].eps.queue[3] 	dropsum
field count 0
field mean nan
field stddev nan
field sum 0
field sqrsum 0
field min nan
field max nan
statistic Basic.rack[2].node[0].app 	throughput
field count 19941
field mean 9971
field stddev 5756.6151947129
field sum 198831711
field sqrsum 2643335043271
field min 1
field max 19941
statistic Basic.rack[2].node[0].app 	"End-to-End Delay"
field count 19941
field mean 7.260659953463e-006
field stddev 7.4327710555617e-006
field sum 0.144784820132
field sqrsum 2.1528402915558e-006
field min 4e-007
field max 4.1217596e-005
statistic Basic.rack[2].node[0].app 	hops
field count 19941
field mean 3.2509904217441
field stddev 0.82728037897368
field sum 64828
field sqrsum 224402
field min 2
field max 4
statistic Basic.rack[2].node[1].app 	throughput
field count 20037
field mean 10019
field stddev 5784.3280076427
field sum 200750703
field sqrsum 2681694807575
field min 1
field max 20037
statistic Basic.rack[2].node[1].app 	"End-to-End Delay"
field count 20037
field mean 7.175377399062e-006
field stddev 7.415059174283e-006
field sum 0.143773036945
field sqrsum 2.1332672427442e-006
field min 4e-007
field max 3.5388763e-005
statistic Basic.rack[2].node[1].app 	hops
field count 20037
field mean 3.2520836452563
field stddev 0.82858342037383
field sum 65162
field sqrsum 225668
field min 2
field max 4
statistic Basic.rack[2].node[2].app 	throughput
field count 20111
field mean 10056
field stddev 5805.6899676094
field sum 202236216
field sqrsum 2711515772056
field min 1
field max 20111
statistic Basic.rack[2].node[2].app 	"End-to-End Delay"
field count 20111
field mean 7.274238146537e-006
field stddev 7.4667355014307e-006
field sum 0.14629220336501
field sqrsum 2.1853398425205e-006
field min 4e-007
field max 3.864781e-005
statistic Basic.rack[2].node[2].app 	hops
field count 20111
field mean 3.264034607926
field stddev 0.82423438343836
field sum 65643
field sqrsum 227923
field min 2
field max 4
statistic Basic.rack[2].node[3].app 	throughput
field count 20177
field mean 10089
field stddev 5824.7425264985
field sum 203565753
field sqrsum 2738298654105
field min 1
field max 20177
statistic Basic.rack[2].node[3].app 	"End-to-End Delay"
field count 20177
field mean 7.2349014873869e-006
field stddev 7.4668811795745e-006
field sum 0.14597860731101
field sqrsum 2.1810398935195e-006
field min 4e-007
field max 3.6530012e-005
statistic Basic.rack[2].node[3].app 	hops
field count 20177
field mean 3.2423551568618
field stddev 0.83243392365966
field sum 65421
field sqrsum 226099
field min 2
field max 4
statistic Basic.rack[2].node[4].app 	throughput
field count 20108
field mean 10054.5
field stddev 5804.8239422053
field sum 202175886
field sqrsum 2710302535754
field min 1
field max 20108
statistic Basic.rack[2].node[4].app 	"End-to-End Delay"
field count 20108
field mean 7.2586254080965e-006
field stddev 7.459284893502e-006
field sum 0.145956439706
field sqrsum 2.1782153238039e-006
field min 4e-007
field max 4.3202972e-005
statistic Basic.rack[2].node[4].app 	hops
field count 20108
field mean 3.2554704595186
field stddev 0.82528091491567
field sum 65461
field sqrsum 226801
field min 2
field max 4
statistic Basic.rack[2].node[5].app 	throughput
field count 19916
field mean 9958.5
field stddev 5749.3983163458
field sum 198333486
field sqrsum 2633405915946
field min 1
field max 19916
statistic Basic.rack[2].node[5].app 	"End-to-End Delay"
field count 19916
field mean 7.266523502812e-006
field stddev 7.4489749949473e-006
field sum 0.144720082082
field sqrsum 2.1566400328644e-006
field min 4e-007
field max 3.6798153e-005
statistic Basic.rack[2].node[5].app 	hops
field count 19916
field mean 3.2511046394858
field stddev 0.82690222874543
field sum 64749
field sqrsum 224123
field min 2
field max 4
statistic Basic.rack[2].node[6].app 	throughput
field count 20196
field mean 10098.5
field stddev 5830.2273540575
field sum 203949306
field sqrsum 2746041439086
field min 1
field max 20196
statistic Basic.rack[2].node[6].app 	"End-to-End Delay"
field count 20196
field mean 7.2103749680632e-006
field stddev 7.4683487505628e-006
field sum 0.145620732855
field sqrsum 2.1763811136561e-006
field min 4e-007
field max 4.600455e-005
statistic Basic.rack[2].node[6].app 	hops
field count 20196
field mean 3.2417805506041
field stddev 0.83339512898749
field sum 65471
field sqrsum 226269
field min 2
field max 4
statistic Basic.rack[2].node[7].app 	throughput
field count 20394
field mean 10197.5
field stddev 5887.3850307246
field sum 207967815
field sqrsum 2827599735345
field min 1
field max 20394
statistic Basic.rack[2].node[7].app 	"End-to-End Delay"
field count 20394
field mean 7.2457213365208e-006
field stddev 7.4516504657227e-006
field sum 0.14776924093701
field sqrsum 2.2030587834075e-006
field min 4e-007
field max 3.795736e-005
statistic Basic.rack[2].node[7].app 	hops
field count 20394
field mean 3.2559086005688
field stddev 0.82611155764525
field sum 66401
field sqrsum 230113
field min 2
field max 4
statistic Basic.rack[2].node[8].app 	throughput
field count 19695
field mean 9848
field stddev 5685.60111158
field sum 193956360
field sqrsum 2546711658920
field min 1
field max 19695
statistic Basic.rack[2].node[8].app 	"End-to-End Delay"
field count 19695
field mean 7.2162196054839e-006
field stddev 7.4264451527469e-006
field sum 0.14212344513
field sqrsum 2.1117592044736e-006
field min 4e-007
field max 3.994987e-005
statistic Basic.rack[2].node[8].app 	hops
field count 19695
field mean 3.2498095963442
field stddev 0.82606741008171
field sum 64005
field sqrsum 221443
field min 2
field max 4
statistic Basic.rack[2].node[9].app 	throughput
field count 20219
field mean 10110
field stddev 5836.8668821552
field sum 204414090
field sqrsum 2755433795170
field min 1
field max 20219
statistic Basic.rack[2].node[9].app 	"End-to-End Delay"
field count 20219
field mean 7.2767287602752e-006
field stddev 7.4688281250696e-006
field sum 0.147128178804
field sqrsum 2.1984405011831e-006
field min 4e-007
field max 4.1891164e-005
statistic Basic.rack[2].node[9].app 	hops
field count 20219
field mean 3.2528314951283
field stddev 0.8262774740882
field sum 65769
field sqrsum 227739
field min 2
field max 4
statistic Basic.rack[2].eps.queue[0] 	dropsum
field count 0
field mean nan
field stddev nan
field sum 0
field sqrsum 0
field min nan
field max nan
statistic Basic.rack[2].eps.queue[1] 	dropsum
field count 0
field mean nan
field stddev nan
field sum 0
field sqrsum 0
field min nan
field max nan
statistic Basic.rack[2].eps.queue[2] 	dropsum
field count 0
field mean nan
field stddev nan
field sum 0
field sqrsum 0
field min nan
field max nan
statistic Basic.rack[2].eps.queue[3] 	dropsum
field count 0
field mean nan
field stddev nan
field sum 0
field sqrsum 0
field min nan
field max nan
statistic Basic.rack[3].node[0].app 	throughput
field count 19932
field mean 9966.5
field stddev 5754.0171185008
field sum 198652278
field sqrsum 2639757687490
field min 1
field max 19932
statistic Basic.rack[3].node[0].app 	"End-to-End Delay"
field count 19932
field mean 7.1897012913408e-006
field stddev 7.471355989235e-006
field sum 0.143305126139
field sqrsum 2.142892596753e-006
field min 4e-007
field max 4.0623697e-005
statistic Basic.rack[3].node[0].app 	hops
field count 19932
field mean 3.2418221954646
field stddev 0.83488058378171
field sum 64616
field sqrsum 223366
field min 2
field max 4
statistic Basic.rack[3].node[1].app 	throughput
field count 19987
field mean 9994
field stddev 5769.8942509085
field sum 199750078
field sqrsum 2661669789350
field min 1
field max 19987
statistic Basic.rack[3].node[1].app 	"End-to-End Delay"
field count 19987
field mean 7.3174234208238e-006
field stddev 7.4731285830671e-006
field sum 0.146253341912
field sqrsum 2.1863687787503e-006
field min 4e-007
field max 4.4902955e-005
statistic Basic.rack[3].node[1].app 	hops
field count 19987
field mean 3.253865012258
field stddev 0.82781286429178
field sum 65035
field sqrsum 225311
field min 2
field max 4
statistic Basic.rack[3].node[2].app 	throughput
field count 20360
field mean 10180.5
field stddev 5877.5700761454
field sum 207274980
field sqrsum 2813481486860
field min 1
field max 20360
statistic Basic.rack[3].node[2].app 	"End-to-End Delay"
field count 20360
field mean 7.2711739338902e-006
field stddev 7.4330133470282e-006
field sum 0.148041101294
field sqrsum 2.2012609829981e-006
field min 4e-007
field max 3.9941509e-005
statistic Basic.rack[3].node[2].app 	hops
field count 20360
field mean 3.253978388998
field stddev 0.82526291605613
field sum 66251
field sqrsum 229445
field min 2
field max 4
statistic Basic.rack[3].node[3].app 	throughput
field count 19912
field mean 9956.5
field stddev 5748.2436158071
field sum 198253828
field sqrsum 2631819566700
field min 1
field max 19912
statistic Basic.rack[3].node[3].app 	"End-to-End Delay"
field count 19912
field mean 7.2969984363201e-006
field stddev 7.497292857063e-006
field sum 0.14529783286401
field sqrsum 2.1794234262843e-006
field min 4e-007
field max 3.7742799e-005
statistic Basic.rack[3].node[3].app 	hops
field count 19912
field mean 3.2630574527923
field stddev 0.82543152573065
field sum 64974
field sqrsum 225580
field min 2
field max 4
statistic Basic.rack[3].node[4].app 	throughput
field count 19905
field mean 9953
field stddev 5746.2228898643
field sum 198114465
field sqrsum 2629044988705
field min 1
field max 19905
statistic Basic.rack[3].node[4].app 	"End-to-End Delay"
field count 19905
field mean 7.2668728880686e-006
field stddev 7.4374530971785e-006
field sum 0.14464710483701
field sqrsum 2.1521359879093e-006
field min 4e-007
field max 3.4694449e-005
statistic Basic.rack[3].node[4].app 	hops
field count 19905
field mean 3.2397387591058
field stddev 0.83060815045088
field sum 64487
field sqrsum 222653
field min 2
field max 4
statistic Basic.rack[3].node[5].app 	throughput
field count 19977
field mean 9989
field stddev 5767.0074995616
field sum 199550253
field sqrsum 2657676786205
field min 1
field max 19977
statistic Basic.rack[3].node[5].app 	"End-to-End Delay"
field count 19977
field mean 7.2736986038447e-006
field stddev 7.4366570143807e-006
field sum 0.14530667700901
field sqrsum 2.1616670318593e-006
field min 4e-007
field max 3.4799837e-005
statistic Basic.rack[3].node[5].app 	hops
field count 19977
field mean 3.2639034890124
field stddev 0.822889796654
field sum 65203
field sqrsum 226343
field min 2
field max 4
statistic Basic.rack[3].node[6].app 	throughput
field count 19933
field mean 9967
field stddev 5754.3057936355
field sum 198672211
field sqrsum 2640155011979
field min 1
field max 19933
statistic Basic.rack[3].node[6].app 	"End-to-End Delay"
field count 19933
field mean 7.2049544780517e-006
field stddev 7.4452224072852e-006
field sum 0.143616357611
field sqrsum 2.1396067218745e-006
field min 4e-007
field max 3.8283019e-005
statistic Basic.rack[3].node[6].app 	hops
field count 19933
field mean 3.2544022475292
field stddev 0.82848053818196
field sum 64870
field sqrsum 224794
field min 2
field max 4
statistic Basic.rack[3].node[7].app 	throughput
field count 19963
field mean 9982
field stddev 5762.966047676
field sum 199270666
field sqrsum 2652093293794
field min 1
field max 19963
statistic Basic.rack[3].node[7].app 	"End-to-End Delay"
field count 19963
field mean 7.2276565683016e-006
field stddev 7.4527067707808e-006
field sum 0.14428570807301
field sqrsum 2.1515936820387e-006
field min 4e-007
field max 3.3970983e-005
statistic Basic.rack[3].node[7].app 	hops
field count 19963
field mean 3.2517657666683
field stddev 0.82972242195899
field sum 64915
field sqrsum 224831
field min 2
field max 4
statistic Basic.rack[3].node[8].app 	throughput
field count 20114
field mean 10057.5
field stddev 5806.5559930134
field sum 202296555
field sqrsum 2712729370365
field min 1
field max 20114
statistic Basic.rack[3].node[8].app 	"End-to-End Delay"
field count 20114
field mean 7.2668950112859e-006
field stddev 7.4787080691836e-006
field sum 0.14616632625701
field sqrsum 2.1871170461819e-006
field min 4e-007
field max 3.8314448e-005
statistic Basic.rack[3].node[8].app 	hops
field count 20114
field mean 3.2550959530675
field stddev 0.82874880053922
field sum 65473
field sqrsum 226935
field min 2
field max 4
statistic Basic.rack[3].node[9].app 	throughput
field count 19930
field mean 9965.5
field stddev 5753.4397682314
field sum 198612415
field sqrsum 2638963158105
field min 1
field max 19930
statistic Basic.rack[3].node[9].app 	"End-to-End Delay"
field count 19930
field mean 7.222252609082e-006
field stddev 7.4290833380432e-006
field sum 0.143939494499
field sqrsum 2.1394743937409e-006
field min 4e-007
field max 3.8367781e-005
statistic Basic.rack[3].node[9].app 	hops
field count 19930
field mean 3.2516307074762
field stddev 0.82587829989077
field sum 64805
field sqrsum 224315
field min 2
field max 4
statistic Basic.rack[3].eps.queue[0] 	dropsum
field count 0
field mean nan
field stddev nan
field sum 0
field sqrsum 0
field min nan
field max nan
statistic Basic.rack[3].eps.queue[1] 	dropsum
field count 0
field mean nan
field stddev nan
field sum 0
field sqrsum 0
field min nan
field max nan
statistic Basic.rack[3].eps.queue[2] 	dropsum
field count 0
field mean nan
field stddev nan
field sum 0
field sqrsum 0
field min nan
field max nan
statistic Basic.rack[3].eps.queue[3] 	dropsum
field count 0
field mean nan
field stddev nan
field sum 0
field sqrsum 0
field min nan
field max nan
statistic Basic.rack[4].node[0].app 	throughput
field count 19835
field mean 9918
field stddev 5726.0156304362
field sum 196723530
field sqrsum 2601406386210
field min 1
field max 19835
statistic Basic.rack[4].node[0].app 	"End-to-End Delay"
field count 19835
field mean 9.5256709924393e-006
field stddev 6.5637222871948e-006
field sum 0.18894168413503
field sqrsum 2.6542936383523e-006
field min 4e-007
field max 3.9586676e-005
statistic Basic.rack[4].node[0].app 	hops
field count 19835
field mean 3.0114444164356
field stddev 0.70737062666059
field sum 59732
field sqrsum 189804
field min 2
field max 4
statistic Basic.rack[4].node[1].app 	throughput
field count 20160
field mean 10080.5
field stddev 5819.8350492089
field sum 203222880
field sqrsum 2731383248160
field min 1
field max 20160
statistic Basic.rack[4].node[1].app 	"End-to-End Delay"
field count 20160
field mean 9.3904222586327e-006
field stddev 6.5075217907015e-006
field sum 0.18931091273404
field sqrsum 2.631399512406e-006
field min 4e-007
field max 4.022691e-005
statistic Basic.rack[4].node[1].app 	hops
field count 20160
field mean 2.9977182539683
field stddev 0.70318117512627
field sum 60434
field sqrsum 191132
field min 2
field max 4
statistic Basic.rack[4].node[2].app 	throughput
field count 20273
field mean 10137
field stddev 5852.4553394281
field sum 205507401
field sqrsum 2777569529449
field min 1
field max 20273
statistic Basic.rack[4].node[2].app 	"End-to-End Delay"
field count 20273
field mean 9.4402588889182e-006
field stddev 6.5574407885472e-006
field sum 0.19138236845504
field sqrsum 2.6783957069731e-006
field min 4e-007
field max 4.0665921e-005
statistic Basic.rack[4].node[2].app 	hops
field count 20273
field mean 2.9991614462586
field stddev 0.70441532795042
field sum 60802
field sqrsum 192414
field min 2
field max 4
statistic Basic.rack[4].node[3].app 	throughput
field count 19794
field mean 9897.5
field stddev 5714.1799499141
field sum 195911115
field sqrsum 2585308377245
field min 1
field max 19794
statistic Basic.rack[4].node[3].app 	"End-to-End Delay"
field count 19794
field mean 9.4191594281617e-006
field stddev 6.5634073600857e-006
field sum 0.18644284172103
field sqrsum 2.6087839624503e-006
field min 4e-007
field max 3.7372884e-005
statistic Basic.rack[4].node[3].app 	hops
field count 19794
field mean 3.0003536425179
field stddev 0.70826680677215
field sum 59389
field sqrsum 188117
field min 2
field max 4
statistic Basic.rack[4].node[4].app 	throughput
field count 19976
field mean 9988.5
field stddev 5766.7188244269
field sum 199530276
field sqrsum 2657277705676
field min 1
field max 19976
statistic Basic.rack[4].node[4].app 	"End-to-End Delay"
field count 19976
field mean 9.4768964189545e-006
field stddev 6.5626503205228e-006
field sum 0.18931048286504
field sqrsum 2.6543667122426e-006
field min 4e-007
field max 3.860203e-005
statistic Basic.rack[4].node[4].app 	hops
field count 19976
field mean 3.0079094913897
field stddev 0.70955397862231
field sum 60086
field sqrsum 190790
field min 2
field max 4
statistic Basic.rack[4].node[5].app 	throughput
field count 19838
field mean 9919.5
field stddev 5726.8816558403
field sum 196783041
field sqrsum 2602586905919
field min 1
field max 19838
statistic Basic.rack[4].node[5].app 	"End-to-End Delay"
field count 19838
field mean 9.4448132477081e-006
field stddev 6.5557473056945e-006
field sum 0.18736620520803
field sqrsum 2.622189886738e-006
field min 4e-007
field max 4.4267279e-005
statistic Basic.rack[4].node[5].app 	hops
field count 19838
field mean 3.0009577578385
field stddev 0.70555383263621
field sum 59533
field sqrsum 188531
field min 2
field max 4
statistic Basic.rack[4].node[6].app 	throughput
field count 19900
field mean 9950.5
field stddev 5744.7795141908
field sum 198014950
field sqrsum 2627064341650
field min 1
field max 19900
statistic Basic.rack[4].node[6].app 	"End-to-End Delay"
field count 19900
field mean 9.2759609018107e-006
field stddev 6.5148951450628e-006
field sum 0.18459162194603
field sqrsum 2.5568550132626e-006
field min 4e-007
field max 3.8181265e-005
statistic Basic.rack[4].node[6].app 	hops
field count 19900
field mean 2.9856281407035
field stddev 0.70576903984018
field sum 59414
field sqrsum 187300
field min 2
field max 4
statistic Basic.rack[4].node[7].app 	throughput
field count 20212
field mean 10106.5
field stddev 5834.8461562124
field sum 204272578
field sqrsum 2752572988550
field min 1
field max 20212
statistic Basic.rack[4].node[7].app 	"End-to-End Delay"
field count 20212
field mean 9.4557156147355e-006
field stddev 6.5609876962615e-006
field sum 0.19111892400503
field sqrsum 2.6771802090609e-006
field min 4e-007
field max 3.8776223e-005
statistic Basic.rack[4].node[7].app 	hops
field count 20212
field mean 3.0046012269939
field stddev 0.70826290379915
field sum 60729
field sqrsum 192605
field min 2
field max 4
statistic Basic.rack[4].node[8].app 	throughput
field count 20018
field mean 10009.5
field stddev 5778.8431800837
field sum 200370171
field sqrsum 2674073512109
field min 1
field max 20018
statistic Basic.rack[4].node[8].app 	"End-to-End Delay"
field count 20018
field mean 9.3728476679007e-006
field stddev 6.4880390323155e-006
field sum 0.18762566461604
field sqrsum 2.60119539179e-006
field min 4e-007
field max 3.8386819e-005
statistic Basic.rack[4].node[8].app 	hops
field count 20018
field mean 2.9956039564392
field stddev 0.70204111342722
field sum 59966
field sqrsum 189500
field min 2
field max 4
statistic Basic.rack[4].node[9].app 	throughput
field count 19704
field mean 9852.5
field stddev 5688.1991877922
field sum 194133660
field sqrsum 2550204468980
field min 1
field max 19704
statistic Basic.rack[4].node[9].app 	"End-to-End Delay"
field count 19704
field mean 9.4592147361465e-006
field stddev 6.5188516519345e-006
field sum 0.18638436716103
field sqrsum 2.6003371478581e-006
field min 4e-007
field max 3.8565991e-005
statistic Basic.rack[4].node[9].app 	hops
field count 19704
field mean 3.0057348761673
field stddev 0.70339523460298
field sum 59225
field sqrsum 187763
field min 2
field max 4
statistic Basic.rack[4].eps.queue[0] 	dropsum
field count 0
field mean nan
field stddev nan
field sum 0
field sqrsum 0
field min nan
field max nan
statistic Basic.rack[4].eps.queue[1] 	dropsum
field count 0
field mean nan
field stddev nan
field sum 0
field sqrsum 0
field min nan
field max nan
statistic Basic.rack[4].eps.queue[2] 	dropsum
field count 0
field mean nan
field stddev nan
field sum 0
field sqrsum 0
field min nan
field max nan
statistic Basic.rack[4].eps.queue[3] 	dropsum
field count 0
field mean nan
field stddev nan
field sum 0
field sqrsum 0
field min nan
field max nan
statistic Basic.rack[5].node[0].app 	throughput
field count 20154
field mean 10077.5
field stddev 5818.1029984008
field sum 203101935
field sqrsum 2728945299305
field min 1
field max 20154
statistic Basic.rack[5].node[0].app 	"End-to-End Delay"
field count 20154
field mean 9.3893956689509e-006
field stddev 6.5632329679172e-006
field sum 0.18923388031204
field sqrsum 2.6449029481733e-006
field min 4e-007
field max 4.0218178e-005
statistic Basic.rack[5].node[0].app 	hops
field count 20154
field mean 2.9980649002679
field stddev 0.70796324417233
field sum 60423
field sqrsum 191253
field min 2
field max 4
statistic Basic.rack[5].node[1].app 	throughput
field count 20194
field mean 10097.5
field stddev 5829.6500037881
field sum 203908915
field sqrsum 2745225722645
field min 1
field max 20194
statistic Basic.rack[5].node[1].app 	"End-to-End Delay"
field count 20194
field mean 9.4501757263066e-006
field stddev 6.5877356291965e-006
field sum 0.19083684861703
field sqrsum 2.6797828332082e-006
field min 4e-007
field max 3.9855036e-005
statistic Basic.rack[5].node[1].app 	hops
field count 20194
field mean 3.0035654154699
field stddev 0.71224419874602
field sum 60654
field sqrsum 192422
field min 2
field max 4
statistic Basic.rack[5].node[2].app 	throughput
field count 20047
field mean 10024
field stddev 5787.2147589896
field sum 200951128
field sqrsum 2685711825720
field min 1
field max 20047
statistic Basic.rack[5].node[2].app 	"End-to-End Delay"
field count 20047
field mean 9.4330714180692e-006
field stddev 6.5350169885118e-006
field sum 0.18910478271803
field sqrsum 2.6399323582443e-006
field min 4e-007
field max 3.7742678e-005
statistic Basic.rack[5].node[2].app 	hops
field count 20047
field mean 3.0020451937946
field stddev 0.70689214551466
field sum 60182
field sqrsum 190686
field min 2
field max 4
statistic Basic.rack[5].node[3].app 	throughput
field count 19723
field mean 9862
field stddev 5693.6840153513
field sum 194508226
field sqrsum 2557588663674
field min 1
field max 19723
statistic Basic.rack[5].node[3].app 	"End-to-End Delay"
field count 19723
field mean 9.3226820330088e-006
field stddev 6.4895992751897e-006
field sum 0.18387125773703
field sqrsum 2.5447633040894e-006
field min 4e-007
field max 4.068525e-005
statistic Basic.rack[5].node[3].app 	hops
field count 19723
field mean 2.9925974750292
field stddev 0.70545268019566
field sum 59023
field sqrsum 186447
field min 2
field max 4
statistic Basic.rack[5].node[4].app 	throughput
field count 20190
field mean 10095.5
field stddev 5828.4953032494
field sum 203828145
field sqrsum 2743594774415
field min 1
field max 20190
statistic Basic.rack[5].node[4].app 	"End-to-End Delay"
field count 20190
field mean 9.422518010403e-006
field stddev 6.518180035594e-006
field sum 0.19024063863004
field sqrsum 2.650309244145e-006
field min 4e-007
field max 4.3100855e-005
statistic Basic.rack[5].node[4].app 	hops
field count 20190
field mean 3.0006438831105
field stddev 0.704878931635
field sum 60583
field sqrsum 191819
field min 2
field max 4
statistic Basic.rack[5].node[5].app 	throughput
field count 19759
field mean 9880
field stddev 5704.0763202
field sum 195218920
field sqrsum 2571618833160
field min 1
field max 19759
statistic Basic.rack[5].node[5].app 	"End-to-End Delay"
field count 19759
field mean 9.3912574668268e-006
field stddev 6.5472649497115e-006
field sum 0.18556185628703
field sqrsum 2.5896189986944e-006
field min 4e-007
field max 4.047548e-005
statistic Basic.rack[5].node[5].app 	hops
field count 19759
field mean 2.9977225568096
field stddev 0.70746090852543
field sum 59232
field sqrsum 187450
field min 2
field max 4
statistic Basic.rack[5].node[6].app 	throughput
field count 19715
field mean 9858
field stddev 5691.3746142738
field sum 194350470
field sqrsum 2554477794190
field min 1
field max 19715
statistic Basic.rack[5].node[6].app 	"End-to-End Delay"
field count 19715
field mean 9.4070908046175e-006
field stddev 6.5473167525043e-006
field sum 0.18546079521303
field sqrsum 2.589733610414e-006
field min 4e-007
field max 5.1645346e-005
statistic Basic.rack[5].node[6].app 	hops
field count 19715
field mean 2.9976667512047
field stddev 0.7064929046606
field sum 59099
field sqrsum 186999
field min 2
field max 4
statistic Basic.rack[5].node[7].app 	throughput
field count 20153
field mean 10077
field stddev 5817.8143232661
field sum 203081781
field sqrsum 2728539115589
field min 1
field max 20153
statistic Basic.rack[5].node[7].app 	"End-to-End Delay"
field count 20153
field mean 9.3890892811509e-006
field stddev 6.5569690130539e-006
field sum 0.18921831628303
field sqrsum 2.6429995820545e-006
field min 4e-007
field max 3.8348342e-005
statistic Basic.rack[5].node[7].app 	hops
field count 20153
field mean 2.9971716369771
field stddev 0.70846827151828
field sum 60402
field sqrsum 191150
field min 2
field max 4
statistic Basic.rack[5].node[8].app 	throughput
field count 20003
field mean 10002
field stddev 5774.5130530634
field sum 200070006
field sqrsum 2668066910014
field min 1
field max 20003
statistic Basic.rack[5].node[8].app 	"End-to-End Delay"
field count 20003
field mean 9.4203288139796e-006
field stddev 6.5663914247337e-006
field sum 0.18843483726603
field sqrsum 2.6375542889038e-006
field min 4e-007
field max 4.5850046e-005
statistic Basic.rack[5].node[8].app 	hops
field count 20003
field mean 2.9984502324651
field stddev 0.7070343754723
field sum 59978
field sqrsum 189840
field min 2
field max 4
statistic Basic.rack[5].node[9].app 	throughput
field count 20178
field mean 10089.5
field stddev 5825.0312016332
field sum 203585931
field sqrsum 2738705805789
field min 1
field max 20178
statistic Basic.rack[5].node[9].app 	"End-to-End Delay"
field count 20178
field mean 9.4300199169906e-006
field stddev 6.564569802682e-006
field sum 0.19027894188504
field sqrsum 2.6638333087204e-006
field min 4e-007
field max 4.2722824e-005
statistic Basic.rack[5].node[9].app 	hops
field count 20178
field mean 2.9996530875211
field stddev 0.70487781345655
field sum 60527
field sqrsum 191585
field min 2
field max 4
statistic Basic.rack[5].eps.queue[0] 	dropsum
field count 0
field mean nan
field stddev nan
field sum 0
field sqrsum 0
field min nan
field max nan
statistic Basic.rack[5].eps.queue[1] 	dropsum
field count 0
field mean nan
field stddev nan
field sum 0
field sqrsum 0
field min nan
field max nan
statistic Basic.rack[5].eps.queue[2] 	dropsum
field count 0
field mean nan
field stddev nan
field sum 0
field sqrsum 0
field min nan
field max nan
statistic Basic.rack[5].eps.queue[3] 	dropsum
field count 0
field mean nan
field stddev nan
field sum 0
field sqrsum 0
field min nan
field max nan
statistic Basic.rack[6].node[0].app 	throughput
field count 19979
field mean 9990
field stddev 5767.584849831
field sum 199590210
field sqrsum 2658475067130
field min 1
field max 19979
statistic Basic.rack[6].node[0].app 	"End-to-End Delay"
field count 19979
field mean 7.2346234088295e-006
field stddev 7.4673794396666e-006
field sum 0.144540541085
field sqrsum 2.1597047373523e-006
field min 4e-007
field max 3.4929898e-005
statistic Basic.rack[6].node[0].app 	hops
field count 19979
field mean 3.2572200810851
field stddev 0.82880208998287
field sum 65076
field sqrsum 225690
field min 2
field max 4
statistic Basic.rack[6].node[1].app 	throughput
field count 20093
field mean 10047
field stddev 5800.493815185
field sum 201874371
field sqrsum 2704241782459
field min 1
field max 20093
statistic Basic.rack[6].node[1].app 	"End-to-End Delay"
field count 20093
field mean 7.2221605183399e-006
field stddev 7.4299531724882e-006
field sum 0.145114871295
field sqrsum 2.1572057637795e-006
field min 4e-007
field max 3.8908644e-005
statistic Basic.rack[6].node[1].app 	hops
field count 20093
field mean 3.2445627830588
field stddev 0.83074442353541
field sum 65193
field sqrsum 225389
field min 2
field max 4
statistic Basic.rack[6].node[2].app 	throughput
field count 20033
field mean 10017
field stddev 5783.173307104
field sum 200670561
field sqrsum 2680089122529
field min 1
field max 20033
statistic Basic.rack[6].node[2].app 	"End-to-End Delay"
field count 20033
field mean 7.3134091622825e-006
field stddev 7.4536431188308e-006
field sum 0.14650952574801
field sqrsum 2.1843978402888e-006
field min 4e-007
field max 4.4890108e-005
statistic Basic.rack[6].node[2].app 	hops
field count 20033
field mean 3.2601208006789
field stddev 0.82406855480009
field sum 65310
field sqrsum 226522
field min 2
field max 4
statistic Basic.rack[6].node[3].app 	throughput
field count 20279
field mean 10140
field stddev 5854.1873902362
field sum 205629060
field sqrsum 2780036348180
field min 1
field max 20279
statistic Basic.rack[6].node[3].app 	"End-to-End Delay"
field count 20279
field mean 7.2308566349428e-006
field stddev 7.435071076217e-006
field sum 0.14663454170001
field sqrsum 2.1812669053018e-006
field min 4e-007
field max 3.6755796e-005
statistic Basic.rack[6].node[3].app 	hops
field count 20279
field mean 3.2479905320775
field stddev 0.82828533371767
field sum 65866
field sqrsum 227844
field min 2
field max 4
statistic Basic.rack[6].node[4].app 	throughput
field count 20029
field mean 10015
field stddev 5782.0186065652
field sum 200590435
field sqrsum 2678484078555
field min 1
field max 20029
statistic Basic.rack[6].node[4].app 	"End-to-End Delay"
field count 20029
field mean 7.2684639579612e-006
field stddev 7.4431431555015e-006
field sum 0.145580064614
field sqrsum 2.1677022639513e-006
field min 4e-007
field max 4.2495333e-005
statistic Basic.rack[6].node[4].app 	hops
field count 20029
field mean 3.2446951919716
field stddev 0.8284483001292
field sum 64988
field sqrsum 224612
field min 2
field max 4
statistic Basic.rack[6].node[5].app 	throughput
field count 20115
field mean 10058
field stddev 5806.8446681481
field sum 202316670
field sqrsum 2713133983590
field min 1
field max 20115
statistic Basic.rack[6].node[5].app 	"End-to-End Delay"
field count 20115
field mean 7.2077134696498e-006
field stddev 7.45311420763e-006
field sum 0.14498315644201
field sqrsum 2.1623078532976e-006
field min 4e-007
field max 3.6725989e-005
statistic Basic.rack[6].node[5].app 	hops
field count 20115
field mean 3.2482724335073
field stddev 0.83106531444827
field sum 65339
field sqrsum 226131
field min 2
field max 4
statistic Basic.rack[6].node[6].app 	throughput
field count 20049
field mean 10025
field stddev 5787.7921092589
field sum 200991225
field sqrsum 2686515710425
field min 1
field max 20049
statistic Basic.rack[6].node[6].app 	"End-to-End Delay"
field count 20049
field mean 7.2898812045491e-006
field stddev 7.4628504851125e-006
field sum 0.14615482827001
field sqrsum 2.1820074014159e-006
field min 4e-007
field max 3.8170447e-005
statistic Basic.rack[6].node[6].app 	hops
field count 20049
field mean 3.2576687116564
field stddev 0.82770763675496
field sum 65313
field sqrsum 226503
field min 2
field max 4
statistic Basic.rack[6].node[7].app 	throughput
field count 20175
field mean 10088
field stddev 5824.1651762291
field sum 203525400
field sqrsum 2737484471800
field min 1
field max 20175
statistic Basic.rack[6].node[7].app 	"End-to-End Delay"
field count 20175
field mean 7.2894174606693e-006
field stddev 7.4601898687005e-006
field sum 0.147063997269
field sqrsum 2.1947833983903e-006
field min 4e-007
field max 4.1671439e-005
statistic Basic.rack[6].node[7].app 	hops
field count 20175
field mean 3.2618091697646
field stddev 0.82632663133941
field sum 65807
field sqrsum 228425
field min 2
field max 4
statistic Basic.rack[6].node[8].app 	throughput
field count 20192
field mean 10096.5
field stddev 5829.0726535187
field sum 203868528
field sqrsum 2744410167760
field min 1
field max 20192
statistic Basic.rack[6].node[8].app 	"End-to-End Delay"
field count 20192
field mean 7.2655460020803e-006
field stddev 7.4343492851726e-006
field sum 0.14670590487401
field sqrsum 2.181845970433e-006
field min 4e-007
field max 3.5652243e-005
statistic Basic.rack[6].node[8].app 	hops
field count 20192
field mean 3.2497523771791
field stddev 0.8272481465125
field sum 65619
field sqrsum 227063
field min 2
field max 4
statistic Basic.rack[6].node[9].app 	throughput
field count 19832
field mean 9916.5
field stddev 5725.1496050322
field sum 196664028
field sqrsum 2600226223540
field min 1
field max 19832
statistic Basic.rack[6].node[9].app 	"End-to-End Delay"
field count 19832
field mean 7.2009054177091e-006
field stddev 7.406189602958e-006
field sum 0.14280835624401
field sqrsum 2.1161124269614e-006
field min 4e-007
field max 3.9411021e-005
statistic Basic.rack[6].node[9].app 	hops
field count 19832
field mean 3.2453106091166
field stddev 0.82799231371868
field sum 64361
field sqrsum 222467
field min 2
field max 4
statistic Basic.rack[6].eps.queue[0] 	dropsum
field count 0
field mean nan
field stddev nan
field sum 0
field sqrsum 0
field min nan
field max nan
statistic Basic.rack[6].eps.queue[1] 	dropsum
field count 0
field mean nan
field stddev nan
field sum 0
field sqrsum 0
field min nan
field max nan
statistic Basic.rack[6].eps.queue[2] 	dropsum
field count 0
field mean nan
field stddev nan
field sum 0
field sqrsum 0
field min nan
field max nan
statistic Basic.rack[6].eps.queue[3] 	dropsum
field count 0
field mean nan
field stddev nan
field sum 0
field sqrsum 0
field min nan
field max nan
statistic Basic.rack[7].node[0].app 	throughput
field count 19780
field mean 9890.5
field stddev 5710.1384980285
field sum 195634090
field sqrsum 2579826744830
field min 1
field max 19780
statistic Basic.rack[7].node[0].app 	"End-to-End Delay"
field count 19780
field mean 7.191040752882e-006
field stddev 7.4367152738545e-006
field sum 0.14223878609201
field sqrsum 2.1167172424875e-006
field min 4e-007
field max 3.3701755e-005
statistic Basic.rack[7].node[0].app 	hops
field count 19780
field mean 3.2479271991911
field stddev 0.83135155470555
field sum 64244
field sqrsum 222330
field min 2
field max 4
statistic Basic.rack[7].node[1].app 	throughput
field count 20025
field mean 10013
field stddev 5780.8639060265
field sum 200510325
field sqrsum 2676879675525
field min 1
field max 20025
statistic Basic.rack[7].node[1].app 	"End-to-End Delay"
field count 20025
field mean 7.2352531457181e-006
field stddev 7.4532704237916e-006
field sum 0.14488594424301
field sqrsum 2.1606445138181e-006
field min 4e-007
field max 3.753863e-005
statistic Basic.rack[7].node[1].app 	hops
field count 20025
field mean 3.2561797752809
field stddev 0.82768823011622
field sum 65205
field sqrsum 226037
field min 2
field max 4
statistic Basic.rack[7].node[2].app 	throughput
field count 19822
field mean 9911.5
field stddev 5722.2628536853
field sum 196465753
field sqrsum 2596294925895
field min 1
field max 19822
statistic Basic.rack[7].node[2].app 	"End-to-End Delay"
field count 19822
field mean 7.2491742021494e-006
field stddev 7.4061931643088e-006
field sum 0.143693131035
field sqrsum 2.1288720284696e-006
field min 4e-007
field max 4.1820623e-005
statistic Basic.rack[7].node[2].app 	hops
field count 19822
field mean 3.2533044092423
field stddev 0.82464800052288
field sum 64487
field sqrsum 223275
field min 2
field max 4
statistic Basic.rack[7].node[3].app 	throughput
field count 19890
field mean 9945.5
field stddev 5741.892762844
field sum 197815995
field sqrsum 2623106032365
field min 1
field max 19890
statistic Basic.rack[7].node[3].app 	"End-to-End Delay"
field count 19890
field mean 7.2521108473607e-006
field stddev 7.4330414713135e-006
field sum 0.144244484754
field sqrsum 2.1449463411297e-006
field min 4e-007
field max 4.0450192e-005
statistic Basic.rack[7].node[3].app 	hops
field count 19890
field mean 3.2562594268477
field stddev 0.82371597319271
field sum 64767
field sqrsum 224393
field min 2
field max 4
statistic Basic.rack[7].node[4].app 	throughput
field count 20141
field mean 10071
field stddev 5814.3502216499
field sum 202840011
field sqrsum 2723668054371
field min 1
field max 20141
statistic Basic.rack[7].node[4].app 	"End-to-End Delay"
field count 20141
field mean 7.3372702681597e-006
field stddev 7.5079694426672e-006
field sum 0.147779960471
field sqrsum 2.2195853579555e-006
field min 4e-007
field max 3.685375e-005
statistic Basic.rack[7].node[4].app 	hops
field count 20141
field mean 3.2528176356685
field stddev 0.82856921338486
field sum 65515
field sqrsum 226935
field min 2
field max 4
statistic Basic.rack[7].node[5].app 	throughput
field count 20000
field mean 10000.5
field stddev 5773.6470276594
field sum 200010000
field sqrsum 2666866670000
field min 1
field max 20000
statistic Basic.rack[7].node[5].app 	"End-to-End Delay"
field count 20000
field mean 7.2790653376003e-006
field stddev 7.4679734940918e-006
field sum 0.14558130675201
field sqrsum 2.1750526353221e-006
field min 4e-007
field max 4.1076348e-005
statistic Basic.rack[7].node[5].app 	hops
field count 20000
field mean 3.25555
field stddev 0.82799666450042
field sum 65111
field sqrsum 225683
field min 2
field max 4
statistic Basic.rack[7].node[6].app 	throughput
field count 19822
field mean 9911.5
field stddev 5722.2628536853
field sum 196465753
field sqrsum 2596294925895
field min 1
field max 19822
statistic Basic.rack[7].node[6].app 	"End-to-End Delay"
field count 19822
field mean 7.2121725633137e-006
field stddev 7.4527968075839e-006
field sum 0.14295968455
field sqrsum 2.1319911114085e-006
field min 4e-007
field max 4.4954871e-005
statistic Basic.rack[7].node[6].app 	hops
field count 19822
field mean 3.252295429321
field stddev 0.83129321612674
field sum 64467
field sqrsum 223363
field min 2
field max 4
statistic Basic.rack[7].node[7].app 	throughput
field count 19847
field mean 9924
field stddev 5729.4797320525
field sum 196961628
field sqrsum 2606130607820
field min 1
field max 19847
statistic Basic.rack[7].node[7].app 	"End-to-End Delay"
field count 19847
field mean 7.2532004141686e-006
field stddev 7.46413964523e-006
field sum 0.14395426862
field sqrsum 2.1498169130267e-006
field min 4e-007
field max 3.65375e-005
statistic Basic.rack[7].node[7].app 	hops
field count 19847
field mean 3.2469390839925
field stddev 0.8311781865137
field sum 64442
field sqrsum 222950
field min 2
field max 4
statistic Basic.rack[7].node[8].app 	throughput
field count 20003
field mean 10002
field stddev 5774.5130530634
field sum 200070006
field sqrsum 2668066910014
field min 1
field max 20003
statistic Basic.rack[7].node[8].app 	"End-to-End Delay"
field count 20003
field mean 7.2691443610461e-006
field stddev 7.4586100322032e-006
field sum 0.145404694654
field sqrsum 2.1696962501907e-006
field min 4e-007
field max 4.0095194e-005
statistic Basic.rack[7].node[8].app 	hops
field count 20003
field mean 3.2525121231815
field stddev 0.82807577693184
field sum 65060
field sqrsum 225324
field min 2
field max 4
statistic Basic.rack[7].node[9].app 	throughput
field count 20048
field mean 10024.5
field stddev 5787.5034341243
field sum 200971176
field sqrsum 2686113748024
field min 1
field max 20048
statistic Basic.rack[7].node[9].app 	"End-to-End Delay"
field count 20048
field mean 7.1866709340585e-006
field stddev 7.4211860927299e-006
field sum 0.14407837888601
field sqrsum 2.1395124363669e-006
field min 4e-007
field max 3.9836587e-005
statistic Basic.rack[7].node[9].app 	hops
field count 20048
field mean 3.2430167597765
field stddev 0.83083028456978
field sum 65016
field sqrsum 224686
field min 2
field max 4
statistic Basic.rack[7].eps.queue[0] 	dropsum
field count 0
field mean nan
field stddev nan
field sum 0
field sqrsum 0
field min nan
field max nan
statistic Basic.rack[7].eps.queue[1] 	dropsum
field count 0
field mean nan
field stddev nan
field sum 0
field sqrsum 0
field min nan
field max nan
statistic Basic.rack[7].eps.queue[2] 	dropsum
field count 0
field mean nan
field stddev nan
field sum 0
field sqrsum 0
field min nan
field max nan
statistic Basic.rack[7].eps.queue[3] 	dropsum
field count 0
field mean nan
field stddev nan
field sum 0
field sqrsum 0
field min nan
field max nan
statistic Basic.rack[8].node[0].app 	throughput
field count 19925
field mean 9963
field stddev 5751.996392558
field sum 198512775
field sqrsum 2636977532175
field min 1
field max 19925
statistic Basic.rack[8].node[0].app 	"End-to-End Delay"
field count 19925
field mean 9.4933483150331e-006
field stddev 6.5429933238143e-006
field sum 0.18915496517704
field sqrsum 2.6486755847688e-006
field min 4e-007
field max 4.6889361e-005
statistic Basic.rack[8].node[0].app 	hops
field count 19925
field mean 3.0076286072773
field stddev 0.70400667546642
field sum 59927
field sqrsum 190113
field min 2
field max 4
statistic Basic.rack[8].node[1].app 	throughput
field count 20033
field mean 10017
field stddev 5783.173307104
field sum 200670561
field sqrsum 2680089122529
field min 1
field max 20033
statistic Basic.rack[8].node[1].app 	"End-to-End Delay"
field count 20033
field mean 9.3926715361171e-006
field stddev 6.570049568995e-006
field sum 0.18816338888303
field sqrsum 2.6320492313249e-006
field min 4e-007
field max 3.8278453e-005
statistic Basic.rack[8].node[1].app 	hops
field count 20033
field mean 2.9984026356512
field stddev 0.71048559490544
field sum 60067
field sqrsum 190217
field min 2
field max 4
statistic Basic.rack[8].node[2].app 	throughput
field count 19920
field mean 9960.5
field stddev 5750.5530168845
field sum 198413160
field sqrsum 2634992902520
field min 1
field max 19920
statistic Basic.rack[8].node[2].app 	"End-to-End Delay"
field count 19920
field mean 9.4313514003029e-006
field stddev 6.5939143020452e-006
field sum 0.18787251989403
field sqrsum 2.6379640138637e-006
field min 4e-007
field max 4.3157231e-005
statistic Basic.rack[8].node[2].app 	hops
field count 19920
field mean 3.0003514056225
field stddev 0.70985254389629
field sum 59767
field sqrsum 189359
field min 2
field max 4
statistic Basic.rack[8].node[3].app 	throughput
field count 20044
field mean 10022.5
field stddev 5786.3487335855
field sum 200890990
field sqrsum 2684506299370
field min 1
field max 20044
statistic Basic.rack[8].node[3].app 	"End-to-End Delay"
field count 20044
field mean 9.4490543059286e-006
field stddev 6.5354082829755e-006
field sum 0.18939684450803
field sqrsum 2.6456888947729e-006
field min 4e-007
field max 3.6990225e-005
statistic Basic.rack[8].node[3].app 	hops
field count 20044
field mean 3.0049890241469
field stddev 0.70760056033778
field sum 60232
field sqrsum 191032
field min 2
field max 4
statistic Basic.rack[8].node[4].app 	throughput
field count 20140
field mean 10070.5
field stddev 5814.0615465152
field sum 202819870
field sqrsum 2723262394490
field min 1
field max 20140
statistic Basic.rack[8].node[4].app 	"End-to-End Delay"
field count 20140
field mean 9.3844388779064e-006
field stddev 6.5570520275448e-006
field sum 0.18900259900103
field sqrsum 2.6395582593788e-006
field min 4e-007
field max 3.8813102e-005
statistic Basic.rack[8].node[4].app 	hops
field count 20140
field mean 2.9955809334657
field stddev 0.70875882961551
field sum 60331
field sqrsum 190843
field min 2
field max 4
statistic Basic.rack[8].node[5].app 	throughput
field count 19858
field mean 9929.5
field stddev 5732.655158534
field sum 197180011
field sqrsum 2610466165629
field min 1
field max 19858
statistic Basic.rack[8].node[5].app 	"End-to-End Delay"
field count 19858
field mean 9.3716334271847e-006
field stddev 6.5590081952735e-006
field sum 0.18610189659703
field sqrsum 2.5983385809682e-006
field min 4e-007
field max 4.01367e-005
statistic Basic.rack[8].node[5].app 	hops
field count 19858
field mean 2.9963238996878
field stddev 0.70953234648707
field sum 59501
field sqrsum 188281
field min 2
field max 4
statistic Basic.rack[8].node[6].app 	throughput
field count 20045
field mean 10023
field stddev 5786.6374087202
field sum 200911035
field sqrsum 2684908101395
field min 1
field max 20045
statistic Basic.rack[8].node[6].app 	"End-to-End Delay"
field count 20045
field mean 9.4878110604158e-006
field stddev 6.5622948918936e-006
field sum 0.19018317270603
field sqrsum 2.6675910978956e-006
field min 4e-007
field max 4.2733782e-005
statistic Basic.rack[8].node[6].app 	hops
field count 20045
field mean 3.0063856323273
field stddev 0.70488724395777
field sum 60263
field sqrsum 191133
field min 2
field max 4
statistic Basic.rack[8].node[7].app 	throughput
field count 20091
field mean 10046
field stddev 5799.9164649157
field sum 201834186
field sqrsum 2703434365346
field min 1
field max 20091
statistic Basic.rack[8].node[7].app 	"End-to-End Delay"
field count 20091
field mean 9.4133712562359e-006
field stddev 6.5110886285579e-006
field sum 0.18912404190904
field sqrsum 2.63199580731e-006
field min 4e-007
field max 3.8329011e-005
statistic Basic.rack[8].node[7].app 	hops
field count 20091
field mean 2.9986561146782
field stddev 0.7023023969767
field sum 60246
field sqrsum 190566
field min 2
field max 4
statistic Basic.rack[8].node[8].app 	throughput
field count 19832
field mean 9916.5
field stddev 5725.1496050322
field sum 196664028
field sqrsum 2600226223540
field min 1
field max 19832
statistic Basic.rack[8].node[8].app 	"End-to-End Delay"
field count 19832
field mean 9.4108330707459e-006
field stddev 6.5526605418542e-006
field sum 0.18663564145903
field sqrsum 2.6078876564881e-006
field min 4e-007
field max 3.9592506e-005
statistic Basic.rack[8].node[8].app 	hops
field count 19832
field mean 3.0008572004841
field stddev 0.70958007240795
field sum 59513
field sqrsum 188575
field min 2
field max 4
statistic Basic.rack[8].node[9].app 	throughput
field count 20076
field mean 10038.5
field stddev 5795.5863378954
field sum 201532926
field sqrsum 2697383859226
field min 1
field max 20076
statistic Basic.rack[8].node[9].app 	"End-to-End Delay"
field count 20076
field mean 9.3397107618069e-006
field stddev 6.568671819358e-006
field sum 0.18750403325404
field sqrsum 2.6174184853838e-006
field min 4e-007
field max 3.828113e-005
statistic Basic.rack[8].node[9].app 	hops
field count 20076
field mean 2.9906355847778
field stddev 0.70861060589119
field sum 60040
field sqrsum 189638
field min 2
field max 4
statistic Basic.rack[8].eps.queue[0] 	dropsum
field count 0
field mean nan
field stddev nan
field sum 0
field sqrsum 0
field min nan
field max nan
statistic Basic.rack[8].eps.queue[1] 	dropsum
field count 0
field mean nan
field stddev nan
field sum 0
field sqrsum 0
field min nan
field max nan
statistic Basic.rack[8].eps.queue[2] 	dropsum
field count 0
field mean nan
field stddev nan
field sum 0
field sqrsum 0
field min nan
field max nan
statistic Basic.rack[8].eps.queue[3] 	dropsum
field count 0
field mean nan
field stddev nan
field sum 0
field sqrsum 0
field min nan
field max nan
statistic Basic.rack[9].node[0].app 	throughput
field count 19927
field mean 9964
field stddev 5752.5737428274
field sum 198552628
field sqrsum 2637771662980
field min 1
field max 19927
statistic Basic.rack[9].node[0].app 	"End-to-End Delay"
field count 19927
field mean 9.4068302165922e-006
field stddev 6.5669533104218e-006
field sum 0.18744990572603
field sqrsum 2.6226157120984e-006
field min 4e-007
field max 4.0152724e-005
statistic Basic.rack[9].node[0].app 	hops
field count 19927
field mean 2.9986450544487
field stddev 0.70923148918597
field sum 59754
field sqrsum 189204
field min 2
field max 4
statistic Basic.rack[9].node[1].app 	throughput
field count 19908
field mean 9954.5
field stddev 5747.0889152683
field sum 198174186
field sqrsum 2630233854654
field min 1
field max 19908
statistic Basic.rack[9].node[1].app 	"End-to-End Delay"
field count 19908
field mean 9.4499590695718e-006
field stddev 6.520013901622e-006
field sum 0.18812978515704
field sqrsum 2.6240769109894e-006
field min 4e-007
field max 4.0681169e-005
statistic Basic.rack[9].node[1].app 	hops
field count 19908
field mean 3.0055756479807
field stddev 0.7047899291843
field sum 59835
field sqrsum 189727
field min 2
field max 4
statistic Basic.rack[9].node[2].app 	throughput
field count 19885
field mean 9943
field stddev 5740.4493871705
field sum 197716555
field sqrsum 2621128369635
field min 1
field max 19885
statistic Basic.rack[9].node[2].app 	"End-to-End Delay"
field count 19885
field mean 9.388044074681e-006
field stddev 6.5545752627993e-006
field sum 0.18668125642503
field sqrsum 2.6068373557515e-006
field min 4e-007
field max 4.3821925e-005
statistic Basic.rack[9].node[2].app 	hops
field count 19885
field mean 2.9989942167463
field stddev 0.70987445390755
field sum 59635
field sqrsum 188865
field min 2
field max 4
statistic Basic.rack[9].node[3].app 	throughput
field count 19976
field mean 9988.5
field stddev 5766.7188244269
field sum 199530276
field sqrsum 2657277705676
field min 1
field max 19976
statistic Basic.rack[9].node[3].app 	"End-to-End Delay"
field count 19976
field mean 9.4794001165416e-006
field stddev 6.5061581288014e-006
field sum 0.18936049672804
field sqrsum 2.6405675343516e-006
field min 4e-007
field max 4.5478431e-005
statistic Basic.rack[9].node[3].app 	hops
field count 19976
field mean 3.0068081698038
field stddev 0.70119062301745
field sum 60064
field sqrsum 190422
field min 2
field max 4
statistic Basic.rack[9].node[4].app 	throughput
field count 19968
field mean 9984.5
field stddev 5764.4094233495
field sum 199370496
field sqrsum 2654086499584
field min 1
field max 19968
statistic Basic.rack[9].node[4].app 	"End-to-End Delay"
field count 19968
field mean 9.4713849943428e-006
field stddev 6.5274166418901e-006
field sum 0.18912461556704
field sqrsum 2.6420093697344e-006
field min 4e-007
field max 4.2989546e-005
statistic Basic.rack[9].node[4].app 	hops
field count 19968
field mean 3.0072616185897
field stddev 0.70542074229801
field sum 60049
field sqrsum 190519
field min 2
field max 4
statistic Basic.rack[9].node[5].app 	throughput
field count 20158
field mean 10079.5
field stddev 5819.2576989395
field sum 203182561
field sqrsum 2730570437279
field min 1
field max 20158
statistic Basic.rack[9].node[5].app 	"End-to-End Delay"
field count 20158
field mean 9.4327961767058e-006
field stddev 6.5816809846448e-006
field sum 0.19014630533004
field sqrsum 2.6667828419642e-006
field min 4e-007
field max 3.6719545e-005
statistic Basic.rack[9].node[5].app 	hops
field count 20158
field mean 3.0018851076496
field stddev 0.71093516033335
field sum 60512
field sqrsum 191838
field min 2
field max 4
statistic Basic.rack[9].node[6].app 	throughput
field count 20163
field mean 10082
field stddev 5820.7010746129
field sum 203283366
field sqrsum 2732602766894
field min 1
field max 20163
statistic Basic.rack[9].node[6].app 	"End-to-End Delay"
field count 20163
field mean 9.4872700410175e-006
field stddev 6.5296114546131e-006
field sum 0.19129182583704
field sqrsum 2.6744607270908e-006
field min 4e-007
field max 3.8155616e-005
statistic Basic.rack[9].node[6].app 	hops
field count 20163
field mean 3.0074393691415
field stddev 0.70485456870967
field sum 60639
field sqrsum 192385
field min 2
field max 4
statistic Basic.rack[9].node[7].app 	throughput
field count 20042
field mean 10021.5
field stddev 5785.7713833161
field sum 200850903
field sqrsum 2683702815585
field min 1
field max 20042
statistic Basic.rack[9].node[7].app 	"End-to-End Delay"
field count 20042
field mean 9.5135895603749e-006
field stddev 6.5622359513182e-006
field sum 0.19067136196903
field sqrsum 2.6769934728745e-006
field min 4e-007
field max 3.8900389e-005
statistic Basic.rack[9].node[7].app 	hops
field count 20042
field mean 3.0101287296677
field stddev 0.7075457020623
field sum 60329
field sqrsum 191631
field min 2
field max 4
statistic Basic.rack[9].node[8].app 	throughput
field count 20016
field mean 10008.5
field stddev 5778.2658298143
field sum 200330136
field sqrsum 2673272111496
field min 1
field max 20016
statistic Basic.rack[9].node[8].app 	"End-to-End Delay"
field count 20016
field mean 9.3743469394502e-006
field stddev 6.5616748151507e-006
field sum 0.18763692834003
field sqrsum 2.6207310261536e-006
field min 4e-007
field max 3.8844323e-005
statistic Basic.rack[9].node[8].app 	hops
field count 20016
field mean 2.9959032773781
field stddev 0.70993323597195
field sum 59966
field sqrsum 189740
field min 2
field max 4
statistic Basic.rack[9].node[9].app 	throughput
field count 20136
field mean 10068.5
field stddev 5812.9068459765
field sum 202739316
field sqrsum 2721640157756
field min 1
field max 20136
statistic Basic.rack[9].node[9].app 	"End-to-End Delay"
field count 20136
field mean 9.4155339102621e-006
field stddev 6.4912130469539e-006
field sum 0.18959119081704
field sqrsum 2.6335075619645e-006
field min 4e-007
field max 4.0074097e-005
statistic Basic.rack[9].node[9].app 	hops
field count 20136
field mean 3.0001489868892
field stddev 0.70123519220526
field sum 60411
field sqrsum 191143
field min 2
field max 4
statistic Basic.rack[9].eps.queue[0] 	dropsum
field count 0
field mean nan
field stddev nan
field sum 0
field sqrsum 0
field min nan
field max nan
statistic Basic.rack[9].eps.queue[1] 	dropsum
field count 0
field mean nan
field stddev nan
field sum 0
field sqrsum 0
field min nan
field max nan
statistic Basic.rack[9].eps.queue[2] 	dropsum
field count 0
field mean nan
field stddev nan
field sum 0
field sqrsum 0
field min nan
field max nan
statistic Basic.rack[9].eps.queue[3] 	dropsum
field count 0
field mean nan
field stddev nan
field sum 0
field sqrsum 0
field min nan
field max nan
statistic Basic.rack[10].node[0].app 	throughput
field count 19957
field mean 9979
field stddev 5761.2339968679
field sum 199150903
field sqrsum 2649702764415
field min 1
field max 19957
statistic Basic.rack[10].node[0].app 	"End-to-End Delay"
field count 19957
field mean 7.2601883283562e-006
field stddev 7.4307947003799e-006
field sum 0.14489157846901
field sqrsum 2.153844809227e-006
field min 4e-007
field max 3.822861e-005
statistic Basic.rack[10].node[0].app 	hops
field count 19957
field mean 3.2621135441199
field stddev 0.82437206344783
field sum 65102
field sqrsum 225932
field min 2
field max 4
statistic Basic.rack[10].node[1].app 	throughput
field count 19995
field mean 9998
field stddev 5772.203651986
field sum 199910010
field sqrsum 2664867069970
field min 1
field max 19995
statistic Basic.rack[10].node[1].app 	"End-to-End Delay"
field count 19995
field mean 7.35792267882e-006
field stddev 7.4870004776713e-006
field sum 0.14712166396301
field sqrsum 2.2032770198152e-006
field min 4e-007
field max 3.4467572e-005
statistic Basic.rack[10].node[1].app 	hops
field count 19995
field mean 3.2569142285571
field stddev 0.82786906606798
field sum 65122
field sqrsum 225800
field min 2
field max 4
statistic Basic.rack[10].node[2].app 	throughput
field count 19930
field mean 9965.5
field stddev 5753.4397682314
field sum 198612415
field sqrsum 2638963158105
field min 1
field max 19930
statistic Basic.rack[10].node[2].app 	"End-to-End Delay"
field count 19930
field mean 7.2994240608131e-006
field stddev 7.4781998378047e-006
field sum 0.14547752153201
field sqrsum 2.1764010106912e-006
field min 4e-007
field max 4.1597645e-005
statistic Basic.rack[10].node[2].app 	hops
field count 19930
field mean 3.2525840441545
field stddev 0.82859030334577
field sum 64824
field sqrsum 224528
field min 2
field max 4
statistic Basic.rack[10].node[3].app 	throughput
field count 20272
field mean 10136.5
field stddev 5852.1666642934
field sum 205487128
field sqrsum 2777158534920
field min 1
field max 20272
statistic Basic.rack[10].node[3].app 	"End-to-End Delay"
field count 20272
field mean 7.3400459565906e-006
field stddev 7.5021128868907e-006
field sum 0.14879741163201
field sqrsum 2.2330661350487e-006
field min 4e-007
field max 4.004168e-005
statistic Basic.rack[10].node[3].app 	hops
field count 20272
field mean 3.253453038674
field stddev 0.82848498209762
field sum 65954
field sqrsum 228492
field min 2
field max 4
statistic Basic.rack[10].node[4].app 	throughput
field count 20015
field mean 10008
field stddev 5777.9771546797
field sum 200310120
field sqrsum 2672871471240
field min 1
field max 20015
statistic Basic.rack[10].node[4].app 	"End-to-End Delay"
field count 20015
field mean 7.2428651815141e-006
field stddev 7.3850224322643e-006
field sum 0.14496594660801
field sqrsum 2.1415034734818e-006
field min 4e-007
field max 3.7142958e-005
statistic Basic.rack[10].node[4].app 	hops
field count 20015
field mean 3.2510117411941
field stddev 0.82357213458776
field sum 65069
field sqrsum 225115
field min 2
field max 4
statistic Basic.rack[10].node[5].app 	throughput
field count 19972
field mean 9986.5
field stddev 5765.5641238882
field sum 199450378
field sqrsum 2655681783070
field min 1
field max 19972
statistic Basic.rack[10].node[5].app 	"End-to-End Delay"
field count 19972
field mean 7.2027472330265e-006
field stddev 7.4389716008687e-006
field sum 0.14385326773801
field sqrsum 2.1412998850765e-006
field min 4e-007
field max 3.8116121e-005
statistic Basic.rack[10].node[5].app 	hops
field count 19972
field mean 3.2469457240136
field stddev 0.82921662112812
field sum 64848
field sqrsum 224290
field min 2
field max 4
statistic Basic.rack[10].node[6].app 	throughput
field count 19841
field mean 9921
field stddev 5727.7476812443
field sum 196842561
field sqrsum 2603767782721
field min 1
field max 19841
statistic Basic.rack[10].node[6].app 	"End-to-End Delay"
field count 19841
field mean 7.1708468152313e-006
field stddev 7.4295737597634e-006
field sum 0.142276771661
field sqrsum 2.1153844893817e-006
field min 4e-007
field max 3.6925382e-005
statistic Basic.rack[10].node[6].app 	hops
field count 19841
field mean 3.2453001360819
field stddev 0.83107259923916
field sum 64390
field sqrsum 222668
field min 2
field max 4
statistic Basic.rack[10].node[7].app 	throughput
field count 19890
field mean 9945.5
field stddev 5741.892762844
field sum 197815995
field sqrsum 2623106032365
field min 1
field max 19890
statistic Basic.rack[10].node[7].app 	"End-to-End Delay"
field count 19890
field mean 7.2057963384618e-006
field stddev 7.4360108813263e-006
field sum 0.143323289172
field sqrsum 2.1325059262572e-006
field min 4e-007
field max 4.6013118e-005
statistic Basic.rack[10].node[7].app 	hops
field count 19890
field mean 3.2437405731523
field stddev 0.82996406488766
field sum 64518
field sqrsum 222980
field min 2
field max 4
statistic Basic.rack[10].node[8].app 	throughput
field count 19798
field mean 9899.5
field stddev 5715.3346504528
field sum 195990301
field sqrsum 2586875982899
field min 1
field max 19798
statistic Basic.rack[10].node[8].app 	"End-to-End Delay"
field count 19798
field mean 7.2370527606326e-006
field stddev 7.4654978202639e-006
field sum 0.143279170555
field sqrsum 2.1402781383795e-006
field min 4e-007
field max 3.8695958e-005
statistic Basic.rack[10].node[8].app 	hops
field count 19798
field mean 3.247196686534
field stddev 0.83018456738655
field sum 64288
field sqrsum 222400
field min 2
field max 4
statistic Basic.rack[10].node[9].app 	throughput
field count 20122
field mean 10061.5
field stddev 5808.8653940909
field sum 202457503
field sqrsum 2715967402745
field min 1
field max 20122
statistic Basic.rack[10].node[9].app 	"End-to-End Delay"
field count 20122
field mean 7.2023941293115e-006
field stddev 7.4211306875366e-006
field sum 0.14492657467001
field sqrsum 2.1519457790769e-006
field min 4e-007
field max 3.6126936e-005
statistic Basic.rack[10].node[9].app 	hops
field count 20122
field mean 3.2433157737799
field stddev 0.82716195952762
field sum 65262
field sqrsum 225432
field min 2
field max 4
statistic Basic.rack[10].eps.queue[0] 	dropsum
field count 0
field mean nan
field stddev nan
field sum 0
field sqrsum 0
field min nan
field max nan
statistic Basic.rack[10].eps.queue[1] 	dropsum
field count 0
field mean nan
field stddev nan
field sum 0
field sqrsum 0
field min nan
field max nan
statistic Basic.rack[10].eps.queue[2] 	dropsum
field count 0
field mean nan
field stddev nan
field sum 0
field sqrsum 0
field min nan
field max nan
statistic Basic.rack[10].eps.queue[3] 	dropsum
field count 0
field mean nan
field stddev nan
field sum 0
field sqrsum 0
field min nan
field max nan
statistic Basic.rack[11].node[0].app 	throughput
field count 19903
field mean 9952
field stddev 5745.6455395949
field sum 198074656
field sqrsum 2628252610464
field min 1
field max 19903
statistic Basic.rack[11].node[0].app 	"End-to-End Delay"
field count 19903
field mean 7.2508483158823e-006
field stddev 7.464750231805e-006
field sum 0.14431363403101
field sqrsum 2.1553853861269e-006
field min 4e-007
field max 4.0593026e-005
statistic Basic.rack[11].node[0].app 	hops
field count 19903
field mean 3.2473998894639
field stddev 0.82773629213879
field sum 64633
field sqrsum 223525
field min 2
field max 4
statistic Basic.rack[11].node[1].app 	throughput
field count 20044
field mean 10022.5
field stddev 5786.3487335855
field sum 200890990
field sqrsum 2684506299370
field min 1
field max 20044
statistic Basic.rack[11].node[1].app 	"End-to-End Delay"
field count 20044
field mean 7.181519629166e-006
field stddev 7.4380057728728e-006
field sum 0.143946379447
field sqrsum 2.1426112760765e-006
field min 4e-007
field max 4.6413744e-005
statistic Basic.rack[11].node[1].app 	hops
field count 20044
field mean 3.2375274396328
field stddev 0.83253612098875
field sum 64893
field sqrsum 223985
field min 2
field max 4
statistic Basic.rack[11].node[2].app 	throughput
field count 19885
field mean 9943
field stddev 5740.4493871705
field sum 197716555
field sqrsum 2621128369635
field min 1
field max 19885
statistic Basic.rack[11].node[2].app 	"End-to-End Delay"
field count 19885
field mean 7.1268433156653e-006
field stddev 7.4613830946421e-006
field sum 0.141717279332
field sqrsum 2.1169836190503e-006
field min 4e-007
field max 4.8845627e-005
statistic Basic.rack[11].node[2].app 	hops
field count 19885
field mean 3.2407845109379
field stddev 0.83468379094149
field sum 64443
field sqrsum 222699
field min 2
field max 4
statistic Basic.rack[11].node[3].app 	throughput
field count 19965
field mean 9983
field stddev 5763.5433979454
field sum 199310595
field sqrsum 2652890456315
field min 1
field max 19965
statistic Basic.rack[11].node[3].app 	"End-to-End Delay"
field count 19965
field mean 7.2060410014528e-006
field stddev 7.483952197949e-006
field sum 0.14386860859401
field sqrsum 2.154897558916e-006
field min 4e-007
field max 4.2820964e-005
statistic Basic.rack[11].node[3].app 	hops
field count 19965
field mean 3.2528925619835
field stddev 0.83159609573812
field sum 64944
field sqrsum 225062
field min 2
field max 4
statistic Basic.rack[11].node[4].app 	throughput
field count 20035
field mean 10018
field stddev 5783.7506573734
field sum 200710630
field sqrsum 2680891884910
field min 1
field max 20035
statistic Basic.rack[11].node[4].app 	"End-to-End Delay"
field count 20035
field mean 7.209135557924e-006
field stddev 7.4364880521599e-006
field sum 0.14443503090301
field sqrsum 2.1491590541458e-006
field min 4e-007
field max 3.5937253e-005
statistic Basic.rack[11].node[4].app 	hops
field count 20035
field mean 3.2481657100075
field stddev 0.82749135535588
field sum 65077
field sqrsum 225099
field min 2
field max 4
statistic Basic.rack[11].node[5].app 	throughput
field count 19969
[...]
field count 20284
field mean 9.4250193124156e-006
field stddev 6.6006568583057e-006
field sum 0.19117709173304
field sqrsum 2.6855511347793e-006
field min 4e-007
field max 4.5197059e-005
statistic Basic.rack[13].node[1].app 	hops
field count 20284
field mean 2.9988661013607
field stddev 0.71077430623077
field sum 60829
field sqrsum 192665
field min 2
field max 4
statistic Basic.rack[13].node[2].app 	throughput
field count 19885
field mean 9943
field stddev 5740.4493871705
field sum 197716555
field sqrsum 2621128369635
field min 1
field max 19885
statistic Basic.rack[13].node[2].app 	"End-to-End Delay"
field count 19885
field mean 9.4496154486816e-006
field stddev 6.5741009540175e-006
field sum 0.18790560319703
field sqrsum 2.6349983767478e-006
field min 4e-007
field max 4.5321117e-005
statistic Basic.rack[13].node[2].app 	hops
field count 19885
field mean 3.0021624339955
field stddev 0.70756562638218
field sum 59698
field sqrsum 189178
field min 2
field max 4
statistic Basic.rack[13].node[3].app 	throughput
field count 19686
field mean 9843.5
field stddev 5683.0030353678
field sum 193779141
field sqrsum 2543222039531
field min 1
field max 19686
statistic Basic.rack[13].node[3].app 	"End-to-End Delay"
field count 19686
field mean 9.3359453266805e-006
field stddev 6.547655082478e-006
field sum 0.18378741970103
field sqrsum 2.5597604307126e-006
field min 4e-007
field max 3.8987003e-005
statistic Basic.rack[13].node[3].app 	hops
field count 19686
field mean 2.9898404957838
field stddev 0.70715951495142
field sum 58858
field sqrsum 185820
field min 2
field max 4
statistic Basic.rack[13].node[4].app 	throughput
field count 19972
field mean 9986.5
field stddev 5765.5641238882
field sum 199450378
field sqrsum 2655681783070
field min 1
field max 19972
statistic Basic.rack[13].node[4].app 	"End-to-End Delay"
field count 19972
field mean 9.4576003732242e-006
field stddev 6.548611093957e-006
field sum 0.18888719465403
field sqrsum 2.6428621029447e-006
field min 4e-007
field max 3.9251819e-005
statistic Basic.rack[13].node[4].app 	hops
field count 19972
field mean 3.0032545563789
field stddev 0.70708158725126
field sum 59981
field sqrsum 190123
field min 2
field max 4
statistic Basic.rack[13].node[5].app 	throughput
field count 20199
field mean 10100
field stddev 5831.0933794615
field sum 204009900
field sqrsum 2747265316700
field min 1
field max 20199
statistic Basic.rack[13].node[5].app 	"End-to-End Delay"
field count 20199
field mean 9.5158570900063e-006
field stddev 6.5039883702894e-006
field sum 0.19221079736104
field sqrsum 2.6834635424757e-006
field min 4e-007
field max 4.3556558e-005
statistic Basic.rack[13].node[5].app 	hops
field count 20199
field mean 3.0116342393188
field stddev 0.70307861174868
field sum 60832
field sqrsum 193188
field min 2
field max 4
statistic Basic.rack[13].node[6].app 	throughput
field count 19987
field mean 9994
field stddev 5769.8942509085
field sum 199750078
field sqrsum 2661669789350
field min 1
field max 19987
statistic Basic.rack[13].node[6].app 	"End-to-End Delay"
field count 19987
field mean 9.4916696684362e-006
field stddev 6.5409556770592e-006
field sum 0.18971000166304
field sqrsum 2.6557477145527e-006
field min 4e-007
field max 3.939704e-005
statistic Basic.rack[13].node[6].app 	hops
field count 19987
field mean 3.0091559513684
field stddev 0.70817885109948
field sum 60144
field sqrsum 191006
field min 2
field max 4
statistic Basic.rack[13].node[7].app 	throughput
field count 19922
field mean 9961.5
field stddev 5751.1303671539
field sum 198453003
field sqrsum 2635786634845
field min 1
field max 19922
statistic Basic.rack[13].node[7].app 	"End-to-End Delay"
field count 19922
field mean 9.3924216214253e-006
field stddev 6.5634400056624e-006
field sum 0.18711582354203
field sqrsum 2.6156423800737e-006
field min 4e-007
field max 4.1910322e-005
statistic Basic.rack[13].node[7].app 	hops
field count 19922
field mean 2.9955325770505
field stddev 0.70654226182193
field sum 59677
field sqrsum 188709
field min 2
field max 4
statistic Basic.rack[13].node[8].app 	throughput
field count 20097
field mean 10049
field stddev 5801.6485157238
field sum 201954753
field sqrsum 2705857098945
field min 1
field max 20097
statistic Basic.rack[13].node[8].app 	"End-to-End Delay"
field count 20097
field mean 9.3989139706939e-006
field stddev 6.5151012865907e-006
field sum 0.18888997406904
field sqrsum 2.6283663799905e-006
field min 4e-007
field max 3.5334303e-005
statistic Basic.rack[13].node[8].app 	hops
field count 20097
field mean 2.9985072398866
field stddev 0.70442595382524
field sum 60261
field sqrsum 190665
field min 2
field max 4
statistic Basic.rack[13].node[9].app 	throughput
field count 19913
field mean 9957
field stddev 5748.5322909418
field sum 198273741
field sqrsum 2632216094269
field min 1
field max 19913
statistic Basic.rack[13].node[9].app 	"End-to-End Delay"
field count 19913
field mean 9.4103963651901e-006
field stddev 6.5731045791546e-006
field sum 0.18738922282003
field sqrsum 2.6237188355363e-006
field min 4e-007
field max 3.5040836e-005
statistic Basic.rack[13].node[9].app 	hops
field count 19913
field mean 2.9989956309948
field stddev 0.71064835778326
field sum 59719
field sqrsum 189153
field min 2
field max 4
statistic Basic.rack[13].eps.queue[0] 	dropsum
field count 0
field mean nan
field stddev nan
field sum 0
field sqrsum 0
field min nan
field max nan
statistic Basic.rack[13].eps.queue[1] 	dropsum
field count 0
field mean nan
field stddev nan
field sum 0
field sqrsum 0
field min nan
field max nan
statistic Basic.rack[13].eps.queue[2] 	dropsum
field count 0
field mean nan
field stddev nan
field sum 0
field sqrsum 0
field min nan
field max nan
statistic Basic.rack[13].eps.queue[3] 	dropsum
field count 0
field mean nan
field stddev nan
field sum 0
field sqrsum 0
field min nan
field max nan
statistic Basic.rack[14].node[0].app 	throughput
field count 19831
field mean 9916
field stddev 5724.8609298975
field sum 196644196
field sqrsum 2599832915316
field min 1
field max 19831
statistic Basic.rack[14].node[0].app 	"End-to-End Delay"
field count 19831
field mean 7.2251967055623e-006
field stddev 7.4453115685554e-006
field sum 0.14328287586801
field sqrsum 2.1344766968023e-006
field min 4e-007
field max 3.4676846e-005
statistic Basic.rack[14].node[0].app 	hops
field count 19831
field mean 3.2501134587262
field stddev 0.82873985367483
field sum 64453
field sqrsum 223099
field min 2
field max 4
statistic Basic.rack[14].node[1].app 	throughput
field count 19806
field mean 9903.5
field stddev 5717.6440515303
field sum 196148721
field sqrsum 2590013094991
field min 1
field max 19806
statistic Basic.rack[14].node[1].app 	"End-to-End Delay"
field count 19806
field mean 7.2304567869839e-006
field stddev 7.4733979136372e-006
field sum 0.143206427123
field sqrsum 2.1415903335491e-006
field min 4e-007
field max 3.9320019e-005
statistic Basic.rack[14].node[1].app 	hops
field count 19806
field mean 3.2493183883672
field stddev 0.83119153250518
field sum 64356
field sqrsum 222796
field min 2
field max 4
statistic Basic.rack[14].node[2].app 	throughput
field count 19814
field mean 9907.5
field stddev 5719.9534526078
field sum 196307205
field sqrsum 2593152742315
field min 1
field max 19814
statistic Basic.rack[14].node[2].app 	"End-to-End Delay"
field count 19814
field mean 7.2120313637835e-006
field stddev 7.4607665935913e-006
field sum 0.14289918944201
field sqrsum 2.1334452112593e-006
field min 4e-007
field max 4.0699549e-005
statistic Basic.rack[14].node[2].app 	hops
field count 19814
field mean 3.2642575956394
field stddev 0.82686761360761
field sum 64678
field sqrsum 224672
field min 2
field max 4
statistic Basic.rack[14].node[3].app 	throughput
field count 19756
field mean 9878.5
field stddev 5703.210294796
field sum 195159646
field sqrsum 2570447697466
field min 1
field max 19756
statistic Basic.rack[14].node[3].app 	"End-to-End Delay"
field count 19756
field mean 7.2442007450903e-006
field stddev 7.4551780514268e-006
field sum 0.14311642992
field sqrsum 2.134740722285e-006
field min 4e-007
field max 3.8695504e-005
statistic Basic.rack[14].node[3].app 	hops
field count 19756
field mean 3.2557197813323
field stddev 0.82691082148709
field sum 64320
field sqrsum 222916
field min 2
field max 4
statistic Basic.rack[14].node[4].app 	throughput
field count 19982
field mean 9991.5
field stddev 5768.450875235
field sum 199650153
field sqrsum 2659672788215
field min 1
field max 19982
statistic Basic.rack[14].node[4].app 	"End-to-End Delay"
field count 19982
field mean 7.2993951342711e-006
field stddev 7.4815499873675e-006
field sum 0.145856513573
field sqrsum 2.1830726315321e-006
field min 4e-007
field max 4.0652896e-005
statistic Basic.rack[14].node[4].app 	hops
field count 19982
field mean 3.2524772295066
field stddev 0.82850148631983
field sum 64991
field sqrsum 225097
field min 2
field max 4
statistic Basic.rack[14].node[5].app 	throughput
field count 19878
field mean 9939.5
field stddev 5738.4286612277
field sum 197577381
field sqrsum 2618361312139
field min 1
field max 19878
statistic Basic.rack[14].node[5].app 	"End-to-End Delay"
field count 19878
field mean 7.2217319534663e-006
field stddev 7.4682702065594e-006
field sum 0.143553587771
field sqrsum 2.1453463970392e-006
field min 4e-007
field max 3.9748481e-005
statistic Basic.rack[14].node[5].app 	hops
field count 19878
field mean 3.2439380219338
field stddev 0.83129851950888
field sum 64483
field sqrsum 222915
field min 2
field max 4
statistic Basic.rack[14].node[6].app 	throughput
field count 19875
field mean 9938
field stddev 5737.5626358237
field sum 197517750
field sqrsum 2617176026750
field min 1
field max 19875
statistic Basic.rack[14].node[6].app 	"End-to-End Delay"
field count 19875
field mean 7.2834833462644e-006
field stddev 7.4588486658911e-006
field sum 0.144759231507
field sqrsum 2.1600299829616e-006
field min 4e-007
field max 4.5636318e-005
statistic Basic.rack[14].node[6].app 	hops
field count 19875
field mean 3.245534591195
field stddev 0.82850103665911
field sum 64505
field sqrsum 222995
field min 2
field max 4
statistic Basic.rack[14].node[7].app 	throughput
field count 19940
field mean 9970.5
field stddev 5756.3265195783
field sum 198811770
field sqrsum 2642937399790
field min 1
field max 19940
statistic Basic.rack[14].node[7].app 	"End-to-End Delay"
field count 19940
field mean 7.2366182809431e-006
field stddev 7.4411688396637e-006
field sum 0.144298168522
field sqrsum 2.1482730076249e-006
field min 4e-007
field max 3.8520752e-005
statistic Basic.rack[14].node[7].app 	hops
field count 19940
field mean 3.253961885657
field stddev 0.82782061814618
field sum 64884
field sqrsum 224794
field min 2
field max 4
statistic Basic.rack[14].node[8].app 	throughput
field count 20043
field mean 10022
field stddev 5786.0600584508
field sum 200870946
field sqrsum 2684104537434
field min 1
field max 20043
statistic Basic.rack[14].node[8].app 	"End-to-End Delay"
field count 20043
field mean 7.3096529222673e-006
field stddev 7.4658206542163e-006
field sum 0.146507373521
field sqrsum 2.1880286278877e-006
field min 4e-007
field max 4.0598597e-005
statistic Basic.rack[14].node[8].app 	hops
field count 20043
field mean 3.2570473482014
field stddev 0.82725296820813
field sum 65281
field sqrsum 226339
field min 2
field max 4
statistic Basic.rack[14].node[9].app 	throughput
field count 20075
field mean 10038
field stddev 5795.2976627607
field sum 201512850
field sqrsum 2696980813450
field min 1
field max 20075
statistic Basic.rack[14].node[9].app 	"End-to-End Delay"
field count 20075
field mean 7.2106057310588e-006
field stddev 7.4654936731259e-006
field sum 0.14475291005101
field sqrsum 2.1625523645588e-006
field min 4e-007
field max 4.4061569e-005
statistic Basic.rack[14].node[9].app 	hops
field count 20075
field mean 3.2517061021171
field stddev 0.83078439037931
field sum 65278
field sqrsum 226120
field min 2
field max 4
statistic Basic.rack[14].eps.queue[0] 	dropsum
field count 0
field mean nan
field stddev nan
field sum 0
field sqrsum 0
field min nan
field max nan
statistic Basic.rack[14].eps.queue[1] 	dropsum
field count 0
field mean nan
field stddev nan
field sum 0
field sqrsum 0
field min nan
field max nan
statistic Basic.rack[14].eps.queue[2] 	dropsum
field count 0
field mean nan
field stddev nan
field sum 0
field sqrsum 0
field min nan
field max nan
statistic Basic.rack[14].eps.queue[3] 	dropsum
field count 0
field mean nan
field stddev nan
field sum 0
field sqrsum 0
field min nan
field max nan
statistic Basic.rack[15].node[0].app 	throughput
field count 19891
field mean 9946
field stddev 5742.1814379787
field sum 197835886
field sqrsum 2623501684246
field min 1
field max 19891
statistic Basic.rack[15].node[0].app 	"End-to-End Delay"
field count 19891
field mean 7.1967440380074e-006
field stddev 7.4494916948909e-006
field sum 0.14315043566
field sqrsum 2.1340111327029e-006
field min 4e-007
field max 3.6451089e-005
statistic Basic.rack[15].node[0].app 	hops
field count 19891
field mean 3.2428233874617
field stddev 0.83129957073106
field sum 64503
field sqrsum 222917
field min 2
field max 4
statistic Basic.rack[15].node[1].app 	throughput
field count 19909
field mean 9955
field stddev 5747.377590403
field sum 198194095
field sqrsum 2630630222935
field min 1
field max 19909
statistic Basic.rack[15].node[1].app 	"End-to-End Delay"
field count 19909
field mean 7.2184390480187e-006
field stddev 7.4250089309788e-006
field sum 0.143711903007
field sqrsum 2.1349187351316e-006
field min 4e-007
field max 3.6248435e-005
statistic Basic.rack[15].node[1].app 	hops
field count 19909
field mean 3.250339042644
field stddev 0.82701979090711
field sum 64711
field sqrsum 223949
field min 2
field max 4
statistic Basic.rack[15].node[2].app 	throughput
field count 20137
field mean 10069
field stddev 5813.1955211111
field sum 202759453
field sqrsum 2722045656525
field min 1
field max 20137
statistic Basic.rack[15].node[2].app 	"End-to-End Delay"
field count 20137
field mean 7.2272694625816e-006
field stddev 7.4305689192137e-006
field sum 0.14553552516801
field sqrsum 2.1636005622382e-006
field min 4e-007
field max 3.7963678e-005
statistic Basic.rack[15].node[2].app 	hops
field count 20137
field mean 3.2451209216864
field stddev 0.82929343949414
field sum 65347
field sqrsum 225907
field min 2
field max 4
statistic Basic.rack[15].node[3].app 	throughput
field count 20309
field mean 10155
field stddev 5862.8476442766
field sum 206237895
field sqrsum 2792392352335
field min 1
field max 20309
statistic Basic.rack[15].node[3].app 	"End-to-End Delay"
field count 20309
field mean 7.1841481553993e-006
field stddev 7.446411327008e-006
field sum 0.145902864888
field sqrsum 2.174246935501e-006
field min 4e-007
field max 3.5720249e-005
statistic Basic.rack[15].node[3].app 	hops
field count 20309
field mean 3.2584568417943
field stddev 0.8289961334032
field sum 66176
field sqrsum 229588
field min 2
field max 4
statistic Basic.rack[15].node[4].app 	throughput
field count 19940
field mean 9970.5
field stddev 5756.3265195783
field sum 198811770
field sqrsum 2642937399790
field min 1
field max 19940
statistic Basic.rack[15].node[4].app 	"End-to-End Delay"
field count 19940
field mean 7.2570847881146e-006
field stddev 7.4653293202192e-006
field sum 0.14470627067501
field sqrsum 2.1613689131934e-006
field min 4e-007
field max 3.5592746e-005
statistic Basic.rack[15].node[4].app 	hops
field count 19940
field mean 3.2512537612839
field stddev 0.83046035982857
field sum 64830
field sqrsum 224530
field min 2
field max 4
statistic Basic.rack[15].node[5].app 	throughput
field count 19861
field mean 9931
field stddev 5733.5211839381
field sum 197239591
field sqrsum 2611649424431
field min 1
field max 19861
statistic Basic.rack[15].node[5].app 	"End-to-End Delay"
field count 19861
field mean 7.2542195051107e-006
field stddev 7.4672101396686e-006
field sum 0.144076053591
field sqrsum 2.1525375717608e-006
field min 4e-007
field max 3.8395462e-005
statistic Basic.rack[15].node[5].app 	hops
field count 19861
field mean 3.2542168068073
field stddev 0.8276886167184
field sum 64632
field sqrsum 223932
field min 2
field max 4
statistic Basic.rack[15].node[6].app 	throughput
field count 19918
field mean 9959.5
field stddev 5749.9756666152
field sum 198373321
field sqrsum 2634199329559
field min 1
field max 19918
statistic Basic.rack[15].node[6].app 	"End-to-End Delay"
field count 19918
field mean 7.210095624812e-006
field stddev 7.4650113554842e-006
field sum 0.14361068465501
field sqrsum 2.1453493691109e-006
field min 4e-007
field max 3.8942562e-005
statistic Basic.rack[15].node[6].app 	hops
field count 19918
field mean 3.2425444321719
field stddev 0.83134324349282
field sum 64585
field sqrsum 223185
field min 2
field max 4
statistic Basic.rack[15].node[7].app 	throughput
field count 19984
field mean 9992.5
field stddev 5769.0282255044
field sum 199690120
field sqrsum 2660471468760
field min 1
field max 19984
statistic Basic.rack[15].node[7].app 	"End-to-End Delay"
field count 19984
field mean 7.292179865943e-006
field stddev 7.4484112468342e-006
field sum 0.145726922441
field sqrsum 2.1713003916777e-006
field min 4e-007
field max 4.057241e-005
statistic Basic.rack[15].node[7].app 	hops
field count 19984
field mean 3.2512009607686
field stddev 0.82730304279811
field sum 64972
field sqrsum 224914
field min 2
field max 4
statistic Basic.rack[15].node[8].app 	throughput
field count 19949
field mean 9975
field stddev 5758.9245957904
field sum 198991275
field sqrsum 2646517627075
field min 1
field max 19949
statistic Basic.rack[15].node[8].app 	"End-to-End Delay"
field count 19949
field mean 7.1670265626349e-006
field stddev 7.4448032902813e-006
field sum 0.142975012898
field sqrsum 2.1303255308591e-006
field min 4e-007
field max 4.020062e-005
statistic Basic.rack[15].node[8].app 	hops
field count 19949
field mean 3.242568549802
field stddev 0.83268438433393
field sum 64686
field sqrsum 223580
field min 2
field max 4
statistic Basic.rack[15].node[9].app 	throughput
field count 19999
field mean 10000
field stddev 5773.3583525247
field sum 199990000
field sqrsum 2666466670000
field min 1
field max 19999
statistic Basic.rack[15].node[9].app 	"End-to-End Delay"
field count 19999
field mean 7.1832724415224e-006
field stddev 7.4524723660044e-006
field sum 0.14365826555801
field sqrsum 2.1426122686122e-006
field min 4e-007
field max 4.0404216e-005
statistic Basic.rack[15].node[9].app 	hops
field count 19999
field mean 3.2411120556028
field stddev 0.83284887411756
field sum 64819
field sqrsum 223957
field min 2
field max 4
statistic Basic.rack[15].eps.queue[0] 	dropsum
field count 0
field mean nan
field stddev nan
field sum 0
field sqrsum 0
field min nan
field max nan
statistic Basic.rack[15].eps.queue[1] 	dropsum
field count 0
field mean nan
field stddev nan
field sum 0
field sqrsum 0
field min nan
field max nan
statistic Basic.rack[15].eps.queue[2] 	dropsum
field count 0
field mean nan
field stddev nan
field sum 0
field sqrsum 0
field min nan
field max nan
statistic Basic.rack[15].eps.queue[3] 	dropsum
field count 0
field mean nan
field stddev nan
field sum 0
field sqrsum 0
field min nan
field max nan
