version 2
run Basic-57-20180510-18:38:20-24492
attr configname Basic
attr datetime 20180510-18:38:20
attr experiment Basic
attr inifile omnetpp.ini
attr iterationvars "$0=exponential(0.08 ms), $1=6, $2=3"
attr iterationvarsf exponential(0.08_ms),6,3-
attr measurement "$0=exponential(0.08 ms), $1=6, $2=3"
attr network Networks.Basic
attr processid 24492
attr repetition 0
attr replication #0
attr resultdir results
attr runnumber 57
attr seedset 57
param **.frameCapacity 50
param **.packetLength "1024 bytes"
param **.pattern 6
param **.sendIaTime "exponential(0.08 ms)"
param **.tp 3

statistic Basic.rack[0].node[0].app 	throughput
field count 113452
field mean 56726.5
field stddev 32750.9157073
field sum 6435734878
field sqrsum 4.8676680749753e+014
field min 1
field max 113452
statistic Basic.rack[0].node[0].app 	"End-to-End Delay"
field count 113452
field mean 0.00011886250075993
field stddev 0.00018182010026091
field sum 13.485188436216
field sqrsum 0.005353408647337
field min 8.496e-007
field max 0.000492146048
statistic Basic.rack[0].node[0].app 	hops
field count 113452
field mean 5.3104220286994
field stddev 1.0133725968281
field sum 602478
field sqrsum 3315918
field min 4
field max 7
statistic Basic.rack[0].node[1].app 	throughput
field count 113401
field mean 56701
field stddev 32736.193275435
field sum 6429950101
field sqrsum 4.861106575857e+014
field min 1
field max 113401
statistic Basic.rack[0].node[1].app 	"End-to-End Delay"
field count 113401
field mean 0.00011959397244207
field stddev 0.00018212418942323
field sum 13.562076068903
field sqrsum 0.0053833321419474
field min 8.496e-007
field max 0.000514039268
statistic Basic.rack[0].node[1].app 	hops
field count 113401
field mean 5.314776765637
field stddev 1.0152267909974
field sum 602701
field sqrsum 3320101
field min 4
field max 7
statistic Basic.rack[0].node[2].app 	throughput
field count 113154
field mean 56577.5
field stddev 32664.89051719
field sum 6401970435
field sqrsum 4.829411757248e+014
field min 1
field max 113154
statistic Basic.rack[0].node[2].app 	"End-to-End Delay"
field count 113154
field mean 0.00012045963404596
field stddev 0.00018265850423
field sum 13.630489430836
field sqrsum 0.0054171750764004
field min 8.496e-007
field max 0.000505135026
statistic Basic.rack[0].node[2].app 	hops
field count 113154
field mean 5.3130689149301
field stddev 1.0163725306557
field sum 601195
field sqrsum 3311079
field min 4
field max 7
statistic Basic.rack[0].node[3].app 	throughput
field count 113832
field mean 56916.5
field stddev 32860.612258447
field sum 6478919028
field sqrsum 4.9167436683654e+014
field min 1
field max 113832
statistic Basic.rack[0].node[3].app 	"End-to-End Delay"
field count 113832
field mean 0.00012011460057199
field stddev 0.00018247263200966
field sum 13.67288521231
field sqrsum 0.0054324598810697
field min 8.496e-007
field max 0.000510135794
statistic Basic.rack[0].node[3].app 	hops
field count 113832
field mean 5.314147164242
field stddev 1.0161788162983
field sum 604920
field sqrsum 3332178
field min 4
field max 7
statistic Basic.rack[0].node[4].app 	throughput
field count 113506
field mean 56753.5
field stddev 32766.504164568
field sum 6441862771
field sqrsum 4.8746219774434e+014
field min 1
field max 113506
statistic Basic.rack[0].node[4].app 	"End-to-End Delay"
field count 113506
field mean 0.00011944562138769
field stddev 0.00018213297750781
field sum 13.557794701232
field sqrsum 0.005384654914623
field min 8.496e-007
field max 0.000499577878
statistic Basic.rack[0].node[4].app 	hops
field count 113506
field mean 5.3105034095114
field stddev 1.0148477816247
field sum 602774
field sqrsum 3317934
field min 4
field max 7
statistic Basic.rack[0].node[5].app 	throughput
field count 114064
field mean 57032.5
field stddev 32927.584889674
field sum 6505355080
field sqrsum 4.9468671634844e+014
field min 1
field max 114064
statistic Basic.rack[0].node[5].app 	"End-to-End Delay"
field count 114064
field mean 0.00011912254122462
field stddev 0.00018192227289224
field sum 13.587593542244
field sqrsum 0.0053935850264897
field min 8.496e-007
field max 0.000508780453
statistic Basic.rack[0].node[5].app 	hops
field count 114064
field mean 5.3159717351662
field stddev 1.0146134340636
field sum 606361
field sqrsum 3340819
field min 4
field max 7
statistic Basic.rack[0].node[6].app 	throughput
field count 113427
field mean 56714
field stddev 32743.698828935
field sum 6432898878
field sqrsum 4.8644509165623e+014
field min 1
field max 113427
statistic Basic.rack[0].node[6].app 	"End-to-End Delay"
field count 113427
field mean 0.00012014798528064
field stddev 0.0001824457622612
field sum 13.628025526428
field sqrsum 0.0054129293875595
field min 8.496e-007
field max 0.000520448759
statistic Basic.rack[0].node[6].app 	hops
field count 113427
field mean 5.3131882179728
field stddev 1.0143570339944
field sum 602659
field sqrsum 3318747
field min 4
field max 7
statistic Basic.rack[0].node[7].app 	throughput
field count 113725
field mean 56863
field stddev 32829.724019045
field sum 6466744675
field sqrsum 4.9028918102448e+014
field min 1
field max 113725
statistic Basic.rack[0].node[7].app 	"End-to-End Delay"
field count 113725
field mean 0.00012009851016316
field stddev 0.00018247856699809
field sum 13.658203068305
field sqrsum 0.0054271601992024
field min 8.496e-007
field max 0.000502667405
statistic Basic.rack[0].node[7].app 	hops
field count 113725
field mean 5.3089821938888
field stddev 1.0172342533011
field sum 603764
field sqrsum 3323050
field min 4
field max 7
statistic Basic.rack[0].node[8].app 	throughput
field count 113206
field mean 56603.5
field stddev 32679.901624189
field sum 6407855821
field sqrsum 4.8360728666669e+014
field min 1
field max 113206
statistic Basic.rack[0].node[8].app 	"End-to-End Delay"
field count 113206
field mean 0.00011953612972837
field stddev 0.00018212323452972
field sum 13.53220710203
field sqrsum 0.0053724698813122
field min 8.496e-007
field max 0.000514736482
statistic Basic.rack[0].node[8].app 	hops
field count 113206
field mean 5.3147889687826
field stddev 1.0158854003178
field sum 601666
field sqrsum 3314558
field min 4
field max 7
statistic Basic.rack[0].node[9].app 	throughput
field count 114068
field mean 57034.5
field stddev 32928.739590212
field sum 6505811346
field sqrsum 4.9473876101413e+014
field min 1
field max 114068
statistic Basic.rack[0].node[9].app 	"End-to-End Delay"
field count 114068
field mean 0.00012044928045293
field stddev 0.00018269359897802
field sum 13.739408522704
field sqrsum 0.0054621105523924
field min 8.496e-007
field max 0.000493375211
statistic Basic.rack[0].node[9].app 	hops
field count 114068
field mean 5.3162762562682
field stddev 1.0153110063716
field sum 606417
field sqrsum 3341467
field min 4
field max 7
statistic Basic.rack[0].eps.queue[0] 	dropsum
field count 0
field mean nan
field stddev nan
field sum 0
field sqrsum 0
field min nan
field max nan
statistic Basic.rack[0].eps.queue[1] 	dropsum
field count 0
field mean nan
field stddev nan
field sum 0
field sqrsum 0
field min nan
field max nan
statistic Basic.rack[0].eps.queue[2] 	dropsum
field count 0
field mean nan
field stddev nan
field sum 0
field sqrsum 0
field min nan
field max nan
statistic Basic.rack[0].eps.queue[3] 	dropsum
field count 0
field mean nan
field stddev nan
field sum 0
field sqrsum 0
field min nan
field max nan
statistic Basic.rack[1].node[0].app 	throughput
field count 113154
field mean 56577.5
field stddev 32664.89051719
field sum 6401970435
field sqrsum 4.829411757248e+014
field min 1
field max 113154
statistic Basic.rack[1].node[0].app 	"End-to-End Delay"
field count 113154
field mean 0.00011977353773394
field stddev 0.00018215169425504
field sum 13.552854888746
field sqrsum 0.0053776038884548
field min 8.496e-007
field max 0.000491243514
statistic Basic.rack[1].node[0].app 	hops
field count 113154
field mean 5.3092864591619
field stddev 1.0134134456952
field sum 600767
field sqrsum 3305853
field min 4
field max 7
statistic Basic.rack[1].node[1].app 	throughput
field count 113796
field mean 56898.5
field stddev 32850.219953602
field sum 6474821706
field sqrsum 4.9120803217789e+014
field min 1
field max 113796
statistic Basic.rack[1].node[1].app 	"End-to-End Delay"
field count 113796
field mean 0.00011870118009626
field stddev 0.00018164339139426
field sum 13.507719490234
field sqrsum 0.0053579710746061
field min 8.496e-007
field max 0.000499738356
statistic Basic.rack[1].node[1].app 	hops
field count 113796
field mean 5.3115399486801
field stddev 1.0173039780709
field sum 604432
field sqrsum 3328232
field min 4
field max 7
statistic Basic.rack[1].node[2].app 	throughput
field count 113133
field mean 56567
field stddev 32658.828339363
field sum 6399594411
field sqrsum 4.8267234286458e+014
field min 1
field max 113133
statistic Basic.rack[1].node[2].app 	"End-to-End Delay"
field count 113133
field mean 0.00011921534000928
field stddev 0.00018199116268044
field sum 13.48718906127
field sqrsum 0.0053549002853005
field min 8.496e-007
field max 0.000507575983
statistic Basic.rack[1].node[2].app 	hops
field count 113133
field mean 5.3047563487223
field stddev 1.013061337443
field sum 600143
field sqrsum 3299719
field min 4
field max 7
statistic Basic.rack[1].node[3].app 	throughput
field count 113469
field mean 56735
field stddev 32755.823184588
field sum 6437663715
field sqrsum 4.869856552728e+014
field min 1
field max 113469
statistic Basic.rack[1].node[3].app 	"End-to-End Delay"
field count 113469
field mean 0.00012023329603602
field stddev 0.00018251491088683
field sum 13.642751867912
field sqrsum 0.0054201241709136
field min 8.496e-007
field max 0.000514093083
statistic Basic.rack[1].node[3].app 	hops
field count 113469
field mean 5.3043474429139
field stddev 1.0162499686184
field sum 601879
field sqrsum 3309761
field min 4
field max 7
statistic Basic.rack[1].node[4].app 	throughput
field count 112975
field mean 56488
field stddev 32613.217668097
field sum 6381731800
field sqrsum 4.806528939806e+014
field min 1
field max 112975
statistic Basic.rack[1].node[4].app 	"End-to-End Delay"
field count 112975
field mean 0.00012029400749711
field stddev 0.00018247747638739
field sum 13.590215496986
field sqrsum 0.0053966330570419
field min 8.496e-007
field max 0.000499351139
statistic Basic.rack[1].node[4].app 	hops
field count 112975
field mean 5.305722504979
field stddev 1.0113175592751
field sum 599414
field sqrsum 3295870
field min 4
field max 7
statistic Basic.rack[1].node[5].app 	throughput
field count 113293
field mean 56647
field stddev 32705.016360899
field sum 6417708571
field sqrsum 4.8472311065906e+014
field min 1
field max 113293
statistic Basic.rack[1].node[5].app 	"End-to-End Delay"
field count 113293
field mean 0.00011916794548241
field stddev 0.00018189444335418
field sum 13.500894047539
field sqrsum 0.0053572063007832
field min 8.496e-007
field max 0.000494954857
statistic Basic.rack[1].node[5].app 	hops
field count 113293
field mean 5.3116167812663
field stddev 1.0133395193881
field sum 601769
field sqrsum 3312701
field min 4
field max 7
statistic Basic.rack[1].node[6].app 	throughput
field count 112599
field mean 56300
field stddev 32504.675817488
field sum 6339323700
field sqrsum 4.758697859721e+014
field min 1
field max 112599
statistic Basic.rack[1].node[6].app 	"End-to-End Delay"
field count 112599
field mean 0.00011957794307708
field stddev 0.00018208287781604
field sum 13.464356812536
field sqrsum 0.0053431338208885
field min 8.496e-007
field max 0.000502645791
statistic Basic.rack[1].node[6].app 	hops
field count 112599
field mean 5.3090702404107
field stddev 1.0138608758543
field sum 597796
field sqrsum 3289482
field min 4
field max 7
statistic Basic.rack[1].node[7].app 	throughput
field count 113438
field mean 56719.5
field stddev 32746.874255416
field sum 6434146641
field sqrsum 4.8658662915672e+014
field min 1
field max 113438
statistic Basic.rack[1].node[7].app 	"End-to-End Delay"
field count 113438
field mean 0.00012026060528731
field stddev 0.00018243249252726
field sum 13.642122542582
field sqrsum 0.0054159763990936
field min 8.496e-007
field max 0.000490194181
statistic Basic.rack[1].node[7].app 	hops
field count 113438
field mean 5.3117297554611
field stddev 1.0157422212777
field sum 602552
field sqrsum 3317630
field min 4
field max 7
statistic Basic.rack[1].node[8].app 	throughput
field count 113153
field mean 56577
field stddev 32664.601842055
field sum 6401857281
field sqrsum 4.8292837189709e+014
field min 1
field max 113153
statistic Basic.rack[1].node[8].app 	"End-to-End Delay"
field count 113153
field mean 0.0001189827494941
field stddev 0.00018177840220854
field sum 13.463255053506
field sqrsum 0.0053408204868803
field min 8.496e-007
field max 0.00049469596
statistic Basic.rack[1].node[8].app 	hops
field count 113153
field mean 5.3151838660928
field stddev 1.0163454962617
field sum 601429
field sqrsum 3313587
field min 4
field max 7
statistic Basic.rack[1].node[9].app 	throughput
field count 113035
field mean 56518
field stddev 32630.538176173
field sum 6388512130
field sqrsum 4.8141910858041e+014
field min 1
field max 113035
statistic Basic.rack[1].node[9].app 	"End-to-End Delay"
field count 113035
field mean 0.00011914751352686
field stddev 0.00018187642737036
field sum 13.467839191509
field sqrsum 0.0053437151755618
field min 8.496e-007
field max 0.000506500897
statistic Basic.rack[1].node[9].app 	hops
field count 113035
field mean 5.3075153713452
field stddev 1.0151408129468
field sum 599935
field sqrsum 3300647
field min 4
field max 7
statistic Basic.rack[1].eps.queue[0] 	dropsum
field count 0
field mean nan
field stddev nan
field sum 0
field sqrsum 0
field min nan
field max nan
statistic Basic.rack[1].eps.queue[1] 	dropsum
field count 0
field mean nan
field stddev nan
field sum 0
field sqrsum 0
field min nan
field max nan
statistic Basic.rack[1].eps.queue[2] 	dropsum
field count 0
field mean nan
field stddev nan
field sum 0
field sqrsum 0
field min nan
field max nan
statistic Basic.rack[1].eps.queue[3] 	dropsum
field count 0
field mean nan
field stddev nan
field sum 0
field sqrsum 0
field min nan
field max nan
statistic Basic.rack[2].node[0].app 	throughput
field count 94955
field mean 47478
field stddev 27411.291742638
field sum 4508273490
field sqrsum 2.8539024225313e+014
field min 1
field max 94955
statistic Basic.rack[2].node[0].app 	"End-to-End Delay"
field count 94955
field mean 0.00036894853417166
field stddev 0.00022713498670452
field sum 35.03350806227
field sqrsum 0.017824267000165
field min 8.496e-007
field max 0.000888790777
statistic Basic.rack[2].node[0].app 	hops
field count 94955
field mean 4.9772839766205
field stddev 0.98803850160055
field sum 472618
field sqrsum 2445050
field min 3
field max 7
statistic Basic.rack[2].node[1].app 	throughput
field count 95746
field mean 47873.5
field stddev 27639.633774105
field sum 4583696131
field sqrsum 2.9258190773786e+014
field min 1
field max 95746
statistic Basic.rack[2].node[1].app 	"End-to-End Delay"
field count 95746
field mean 0.00036948060235251
field stddev 0.00022676039463228
field sum 35.376289752844
field sqrsum 0.017994087227435
field min 8.496e-007
field max 0.000884507492
statistic Basic.rack[2].node[1].app 	hops
field count 95746
field mean 4.9770329831011
field stddev 0.98819865769924
field sum 476531
field sqrsum 2465209
field min 3
field max 7
statistic Basic.rack[2].node[2].app 	throughput
field count 94991
field mean 47496
field stddev 27421.684047483
field sum 4511692536
field sqrsum 2.857149610223e+014
field min 1
field max 94991
statistic Basic.rack[2].node[2].app 	"End-to-End Delay"
field count 94991
field mean 0.00036956595120353
field stddev 0.00022752550889675
field sum 35.105439270775
field sqrsum 0.017891203811829
field min 8.496e-007
field max 0.000876102161
statistic Basic.rack[2].node[2].app 	hops
field count 94991
field mean 4.9829983893211
field stddev 0.9882643427687
field sum 473340
field sqrsum 2451426
field min 3
field max 7
statistic Basic.rack[2].node[3].app 	throughput
field count 94665
field mean 47333
field stddev 27327.575953604
field sum 4480778445
field sqrsum 2.8278342125676e+014
field min 1
field max 94665
statistic Basic.rack[2].node[3].app 	"End-to-End Delay"
field count 94665
field mean 0.00036889833973021
field stddev 0.00022740296598002
field sum 34.92176133056
field sqrsum 0.017777854855664
field min 8.496e-007
field max 0.000893238962
statistic Basic.rack[2].node[3].app 	hops
field count 94665
field mean 4.9778693286854
field stddev 0.98645348086485
field sum 471230
field sqrsum 2437838
field min 3
field max 7
statistic Basic.rack[2].node[4].app 	throughput
field count 95109
field mean 47555
field stddev 27455.747713366
field sum 4522908495
field sqrsum 2.8678104367014e+014
field min 1
field max 95109
statistic Basic.rack[2].node[4].app 	"End-to-End Delay"
field count 95109
field mean 0.00036875865181454
field stddev 0.00022766169805354
field sum 35.072266615429
field sqrsum 0.01786263500911
field min 8.496e-007
field max 0.000886840093
statistic Basic.rack[2].node[4].app 	hops
field count 95109
field mean 4.9806432619416
field stddev 0.9864037876232
field sum 473704
field sqrsum 2451890
field min 3
field max 7
statistic Basic.rack[2].node[5].app 	throughput
field count 95232
field mean 47616.5
field stddev 27491.254754922
field sum 4534614528
field sqrsum 2.8789511869184e+014
field min 1
field max 95232
statistic Basic.rack[2].node[5].app 	"End-to-End Delay"
field count 95232
field mean 0.00036846546755792
field stddev 0.0002268248668557
field sum 35.089703406475
field sqrsum 0.017828933232597
field min 8.496e-007
field max 0.000878735475
statistic Basic.rack[2].node[5].app 	hops
field count 95232
field mean 4.978526125672
field stddev 0.98419793046327
field sum 474115
field sqrsum 2452639
field min 3
field max 7
statistic Basic.rack[2].node[6].app 	throughput
field count 95358
field mean 47679.5
field stddev 27527.627821881
field sum 4546621761
field sqrsum 2.8903935413088e+014
field min 1
field max 95358
statistic Basic.rack[2].node[6].app 	"End-to-End Delay"
field count 95358
field mean 0.00036829516077106
field stddev 0.00022768164271836
field sum 35.119889940807
field sqrsum 0.017877690401114
field min 8.496e-007
field max 0.00088432971
statistic Basic.rack[2].node[6].app 	hops
field count 95358
field mean 4.9810084104113
field stddev 0.98608993367319
field sum 474979
field sqrsum 2458597
field min 3
field max 7
statistic Basic.rack[2].node[7].app 	throughput
field count 95413
field mean 47707
field stddev 27543.504954284
field sum 4551867991
field sqrsum 2.8953977103952e+014
field min 1
field max 95413
statistic Basic.rack[2].node[7].app 	"End-to-End Delay"
field count 95413
field mean 0.0003689696222723
field stddev 0.00022793697458271
field sum 35.204498569867
field sqrsum 0.017946546224817
field min 8.496e-007
field max 0.000887199277
statistic Basic.rack[2].node[7].app 	hops
field count 95413
field mean 4.9817844528523
field stddev 0.9871111139839
field sum 475327
field sqrsum 2460945
field min 3
field max 7
statistic Basic.rack[2].node[8].app 	throughput
field count 95101
field mean 47551
field stddev 27453.438312289
field sum 4522147651
field sqrsum 2.8670868322105e+014
field min 1
field max 95101
statistic Basic.rack[2].node[8].app 	"End-to-End Delay"
field count 95101
field mean 0.0003689292275601
field stddev 0.00022776560189092
field sum 35.085538470193
field sqrsum 0.017877599416729
field min 8.496e-007
field max 0.000879003336
statistic Basic.rack[2].node[8].app 	hops
field count 95101
field mean 4.9753420048159
field stddev 0.98838244789929
field sum 473160
field sqrsum 2447036
field min 3
field max 7
statistic Basic.rack[2].node[9].app 	throughput
field count 95265
field mean 47633
field stddev 27500.781034363
field sum 4537757745
field sqrsum 2.8819450697086e+014
field min 1
field max 95265
statistic Basic.rack[2].node[9].app 	"End-to-End Delay"
field count 95265
field mean 0.00036762384037344
field stddev 0.0002281698611543
field sum 35.021685153175
field sqrsum 0.017834391750763
field min 8.496e-007
field max 0.000890714547
statistic Basic.rack[2].node[9].app 	hops
field count 95265
field mean 4.9768435416995
field stddev 0.98680684872297
field sum 474119
field sqrsum 2452383
field min 3
field max 7
statistic Basic.rack[2].eps.queue[0] 	dropsum
field count 0
field mean nan
field stddev nan
field sum 0
field sqrsum 0
field min nan
field max nan
statistic Basic.rack[2].eps.queue[1] 	dropsum
field count 395157
field mean 197579
field stddev 114072.14449803
field sum 78074724903
field sqrsum 2.0567875403857e+016
field min 1
field max 395157
statistic Basic.rack[2].eps.queue[2] 	dropsum
field count 0
field mean nan
field stddev nan
field sum 0
field sqrsum 0
field min nan
field max nan
statistic Basic.rack[2].eps.queue[3] 	dropsum
field count 0
field mean nan
field stddev nan
field sum 0
field sqrsum 0
field min nan
field max nan
statistic Basic.rack[3].node[0].app 	throughput
field count 95593
field mean 47797
field stddev 27595.466478512
field sum 4569058621
field sqrsum 2.9118153685771e+014
field min 1
field max 95593
statistic Basic.rack[3].node[0].app 	"End-to-End Delay"
field count 95593
field mean 0.00037200278713182
field stddev 0.00023129992675667
field sum 35.560862430292
field sqrsum 0.018342879064478
field min 8.496e-007
field max 0.000890491928
statistic Basic.rack[3].node[0].app 	hops
field count 95593
field mean 4.9898737355246
field stddev 0.99315696647785
field sum 476997
field sqrsum 2474443
field min 3
field max 7
statistic Basic.rack[3].node[1].app 	throughput
field count 95821
field mean 47911
field stddev 27661.2844092
field sum 4590879931
field sqrsum 2.9327000087221e+014
field min 1
field max 95821
statistic Basic.rack[3].node[1].app 	"End-to-End Delay"
field count 95821
field mean 0.00037105090223055
field stddev 0.00023040811265415
field sum 35.554468502634
field sqrsum 0.018279400038699
field min 8.496e-007
field max 0.000889062578
statistic Basic.rack[3].node[1].app 	hops
field count 95821
field mean 4.9884576449839
field stddev 0.99171707497009
field sum 477999
field sqrsum 2478717
field min 3
field max 7
statistic Basic.rack[3].node[2].app 	throughput
field count 95265
field mean 47633
field stddev 27500.781034363
field sum 4537757745
field sqrsum 2.8819450697086e+014
field min 1
field max 95265
statistic Basic.rack[3].node[2].app 	"End-to-End Delay"
field count 95265
field mean 0.00037210402588757
field stddev 0.00022986170156723
field sum 35.448490026179
field sqrsum 0.018223932835966
field min 8.496e-007
field max 0.000883297326
statistic Basic.rack[3].node[2].app 	hops
field count 95265
field mean 4.9881383509159
field stddev 0.99437131642056
field sum 475195
field sqrsum 2464533
field min 3
field max 7
statistic Basic.rack[3].node[3].app 	throughput
field count 95794
field mean 47897.5
field stddev 27653.490180566
field sum 4588293115
field sqrsum 2.9302216320324e+014
field min 1
field max 95794
statistic Basic.rack[3].node[3].app 	"End-to-End Delay"
field count 95794
field mean 0.0003721673123381
field stddev 0.00023053606551304
field sum 35.651395518116
field sqrsum 0.018359382887651
field min 8.496e-007
field max 0.000896705343
statistic Basic.rack[3].node[3].app 	hops
field count 95794
field mean 4.986648433096
field stddev 0.99549538880797
field sum 477691
field sqrsum 2477009
field min 3
field max 7
statistic Basic.rack[3].node[4].app 	throughput
field count 95328
field mean 47664.5
field stddev 27518.967567843
field sum 4543761456
field sqrsum 2.8876664263886e+014
field min 1
field max 95328
statistic Basic.rack[3].node[4].app 	"End-to-End Delay"
field count 95328
field mean 0.00037140899957597
field stddev 0.00023037802091119
field sum 35.405677111578
field sqrsum 0.018209375413256
field min 8.496e-007
field max 0.000893956157
statistic Basic.rack[3].node[4].app 	hops
field count 95328
field mean 4.9838872104733
field stddev 0.99641773821728
field sum 475104
field sqrsum 2462510
field min 3
field max 7
statistic Basic.rack[3].node[5].app 	throughput
field count 95020
field mean 47510.5
field stddev 27430.055626387
field sum 4514447710
field sqrsum 2.8597671908537e+014
field min 1
field max 95020
statistic Basic.rack[3].node[5].app 	"End-to-End Delay"
field count 95020
field mean 0.00037141194859608
field stddev 0.00023128408290555
field sum 35.291563355599
field sqrsum 0.018190495734637
field min 8.496e-007
field max 0.000889874935
statistic Basic.rack[3].node[5].app 	hops
field count 95020
field mean 4.988612923595
field stddev 0.99259871253218
field sum 474018
field sqrsum 2458310
field min 3
field max 7
statistic Basic.rack[3].node[6].app 	throughput
field count 95084
field mean 47542.5
field stddev 27448.530835001
field sum 4520531070
field sqrsum 2.8655495768361e+014
field min 1
field max 95084
statistic Basic.rack[3].node[6].app 	"End-to-End Delay"
field count 95084
field mean 0.00037224174126495
field stddev 0.00023201601803259
field sum 35.394233726437
field sqrsum 0.018293665301226
field min 8.496e-007
field max 0.00090630218
statistic Basic.rack[3].node[6].app 	hops
field count 95084
field mean 4.991155189096
field stddev 0.99726475892856
field sum 474579
field sqrsum 2463261
field min 3
field max 7
statistic Basic.rack[3].node[7].app 	throughput
field count 94576
field mean 47288.5
field stddev 27301.883866625
field sum 4472357176
field sqrsum 2.8198659230398e+014
field min 1
field max 94576
statistic Basic.rack[3].node[7].app 	"End-to-End Delay"
field count 94576
field mean 0.00037273109161079
field stddev 0.00023105952763285
field sum 35.251415720182
field sqrsum 0.018188516551894
field min 8.496e-007
field max 0.000886321579
statistic Basic.rack[3].node[7].app 	hops
field count 94576
field mean 4.9907693283708
field stddev 0.9945181048578
field sum 472007
field sqrsum 2449219
field min 3
field max 7
statistic Basic.rack[3].node[8].app 	throughput
field count 95058
field mean 47529.5
field stddev 27441.025281501
field sum 4518059211
field sqrsum 2.8631995433923e+014
field min 1
field max 95058
statistic Basic.rack[3].node[8].app 	"End-to-End Delay"
field count 95058
field mean 0.00037245004673367
field stddev 0.00023097221173709
field sum 35.404356542409
field sqrsum 0.018257470540562
field min 8.496e-007
field max 0.00090169676
statistic Basic.rack[3].node[8].app 	hops
field count 95058
field mean 4.9843884786131
field stddev 0.99584560798291
field sum 473806
field sqrsum 2455902
field min 3
field max 7
statistic Basic.rack[3].node[9].app 	throughput
field count 95128
field mean 47564.5
field stddev 27461.232540923
field sum 4524715756
field sqrsum 2.8695294852976e+014
field min 1
field max 95128
statistic Basic.rack[3].node[9].app 	"End-to-End Delay"
field count 95128
field mean 0.00037212744634995
field stddev 0.00023200705097973
field sum 35.399739716378
field sqrsum 0.018293641617525
field min 8.496e-007
field max 0.000883885884
statistic Basic.rack[3].node[9].app 	hops
field count 95128
field mean 4.9908439155664
field stddev 0.99371507303266
field sum 474769
field sqrsum 2463433
field min 3
field max 7
statistic Basic.rack[3].eps.queue[0] 	dropsum
field count 391424
field mean 195712.5
field stddev 112994.5202206
field sum 76606569600
field sqrsum 1.9990458801551e+016
field min 1
field max 391424
statistic Basic.rack[3].eps.queue[1] 	dropsum
field count 0
field mean nan
field stddev nan
field sum 0
field sqrsum 0
field min nan
field max nan
statistic Basic.rack[3].eps.queue[2] 	dropsum
field count 0
field mean nan
field stddev nan
field sum 0
field sqrsum 0
field min nan
field max nan
statistic Basic.rack[3].eps.queue[3] 	dropsum
field count 0
field mean nan
field stddev nan
field sum 0
field sqrsum 0
field min nan
field max nan
statistic Basic.rack[4].node[0].app 	throughput
field count 113818
field mean 56909.5
field stddev 32856.570806563
field sum 6477325471
field sqrsum 4.9149297941401e+014
field min 1
field max 113818
statistic Basic.rack[4].node[0].app 	"End-to-End Delay"
field count 113818
field mean 0.000120268535117
field stddev 0.0001824819221624
field sum 13.688724129946
field sqrsum 0.0054363892808622
field min 8.496e-007
field max 0.000507514893
statistic Basic.rack[4].node[0].app 	hops
field count 113818
field mean 5.3155652005834
field stddev 1.0185589247718
field sum 605007
field sqrsum 3334035
field min 4
field max 7
statistic Basic.rack[4].node[1].app 	throughput
field count 113495
field mean 56748
field stddev 32763.328738088
field sum 6440614260
field sqrsum 4.8732049049722e+014
field min 1
field max 113495
statistic Basic.rack[4].node[1].app 	"End-to-End Delay"
field count 113495
field mean 0.00011914375741229
field stddev 0.00018183863372048
field sum 13.522220747508
field sqrsum 0.0053638000656473
field min 8.496e-007
field max 0.000505631685
statistic Basic.rack[4].node[1].app 	hops
field count 113495
field mean 5.3140050222477
field stddev 1.0160807641503
field sum 603113
field sqrsum 3322119
field min 4
field max 7
statistic Basic.rack[4].node[2].app 	throughput
field count 113347
field mean 56674
field stddev 32720.604818167
field sum 6423827878
field sqrsum 4.8541655360107e+014
field min 1
field max 113347
statistic Basic.rack[4].node[2].app 	"End-to-End Delay"
field count 113347
field mean 0.00012040655136251
field stddev 0.00018264173672602
field sum 13.647721377286
field sqrsum 0.0054242713857331
field min 8.496e-007
field max 0.000521568064
statistic Basic.rack[4].node[2].app 	hops
field count 113347
field mean 5.3179881249614
field stddev 1.0192497023874
field sum 602778
field sqrsum 3323318
field min 4
field max 7
statistic Basic.rack[4].node[3].app 	throughput
field count 113704
field mean 56852.5
field stddev 32823.661841219
field sum 6464356660
field sqrsum 4.9001762789798e+014
field min 1
field max 113704
statistic Basic.rack[4].node[3].app 	"End-to-End Delay"
field count 113704
field mean 0.00012028185625199
field stddev 0.00018235782094325
field sum 13.676528183276
field sqrsum 0.0054261603815794
field min 8.496e-007
field max 0.000501804677
statistic Basic.rack[4].node[3].app 	hops
field count 113704
field mean 5.3165323999156
field stddev 1.0162599964144
field sum 604511
field sqrsum 3331333
field min 4
field max 7
statistic Basic.rack[4].node[4].app 	throughput
field count 113852
field mean 56926.5
field stddev 32866.385761139
field sum 6481195878
field sqrsum 4.9193356913333e+014
field min 1
field max 113852
statistic Basic.rack[4].node[4].app 	"End-to-End Delay"
field count 113852
field mean 0.00011993247378737
field stddev 0.00018222594191838
field sum 13.654552005639
field sqrsum 0.0054181939682191
field min 8.496e-007
field max 0.000497775099
statistic Basic.rack[4].node[4].app 	hops
field count 113852
field mean 5.3136528124231
field stddev 1.0175293763037
field sum 604970
field sqrsum 3332478
field min 4
field max 7
statistic Basic.rack[4].node[5].app 	throughput
field count 113841
field mean 56921
field stddev 32863.210334658
field sum 6479943561
field sqrsum 4.9179099659972e+014
field min 1
field max 113841
statistic Basic.rack[4].node[5].app 	"End-to-End Delay"
field count 113841
field mean 0.00012030448873486
field stddev 0.00018246255643263
field sum 13.695583302066
field sqrsum 0.0054376679665527
field min 8.496e-007
field max 0.000508369622
statistic Basic.rack[4].node[5].app 	hops
field count 113841
field mean 5.3134283781766
field stddev 1.0164215699135
field sum 604886
field sqrsum 3331628
field min 4
field max 7
statistic Basic.rack[4].node[6].app 	throughput
field count 113879
field mean 56940
field stddev 32874.179989773
field sum 6484270260
field sqrsum 4.9228363671578e+014
field min 1
field max 113879
statistic Basic.rack[4].node[6].app 	"End-to-End Delay"
field count 113879
field mean 0.00011986841894777
field stddev 0.00018227623118023
field sum 13.650495681353
field sqrsum 0.0054198171186667
field min 8.496e-007
field max 0.000516213998
statistic Basic.rack[4].node[6].app 	hops
field count 113879
field mean 5.3123051660095
field stddev 1.0144111091701
field sum 604960
field sqrsum 3330916
field min 4
field max 7
statistic Basic.rack[4].node[7].app 	throughput
field count 113530
field mean 56765.5
field stddev 32773.432367799
field sum 6444587215
field sqrsum 4.877714725417e+014
field min 1
field max 113530
statistic Basic.rack[4].node[7].app 	"End-to-End Delay"
field count 113530
field mean 0.00012020275505377
field stddev 0.00018250674248111
field sum 13.646618781254
field sqrsum 0.0054218658315919
field min 8.496e-007
field max 0.000513926041
statistic Basic.rack[4].node[7].app 	hops
field count 113530
field mean 5.312252268123
field stddev 1.0189765359072
field sum 603100
field sqrsum 3321698
field min 4
field max 7
statistic Basic.rack[4].node[8].app 	throughput
field count 113638
field mean 56819.5
field stddev 32804.609282335
field sum 6456854341
field sqrsum 4.8916482801982e+014
field min 1
field max 113638
statistic Basic.rack[4].node[8].app 	"End-to-End Delay"
field count 113638
field mean 0.00011993158004348
field stddev 0.0001823234825266
field sum 13.628784892981
field sqrsum 0.0054120260739013
field min 8.496e-007
field max 0.000514116288
statistic Basic.rack[4].node[8].app 	hops
field count 113638
field mean 5.3121403051796
field stddev 1.0160632094092
field sum 603661
field sqrsum 3324049
field min 4
field max 7
statistic Basic.rack[4].node[9].app 	throughput
field count 114070
field mean 57035.5
field stddev 32929.316940481
field sum 6506039485
field sqrsum 4.947647847158e+014
field min 1
field max 114070
statistic Basic.rack[4].node[9].app 	"End-to-End Delay"
field count 114070
field mean 0.00011987263374393
field stddev 0.00018223461553444
field sum 13.67387133117
field sqrsum 0.005427292303629
field min 8.496e-007
field max 0.000491132851
statistic Basic.rack[4].node[9].app 	hops
field count 114070
field mean 5.3206978171298
field stddev 1.0151791900741
field sum 606932
field sqrsum 3346860
field min 4
field max 7
statistic Basic.rack[4].eps.queue[0] 	dropsum
field count 0
field mean nan
field stddev nan
field sum 0
field sqrsum 0
field min nan
field max nan
statistic Basic.rack[4].eps.queue[1] 	dropsum
field count 0
field mean nan
field stddev nan
field sum 0
field sqrsum 0
field min nan
field max nan
statistic Basic.rack[4].eps.queue[2] 	dropsum
field count 0
field mean nan
field stddev nan
field sum 0
field sqrsum 0
field min nan
field max nan
statistic Basic.rack[4].eps.queue[3] 	dropsum
field count 0
field mean nan
field stddev nan
field sum 0
field sqrsum 0
field min nan
field max nan
statistic Basic.rack[5].node[0].app 	throughput
field count 113353
field mean 56677
field stddev 32722.336868975
field sum 6424507981
field sqrsum 4.8549364361619e+014
field min 1
field max 113353
statistic Basic.rack[5].node[0].app 	"End-to-End Delay"
field count 113353
field mean 0.00011926671913612
field stddev 0.0001819736786407
field sum 13.519240414237
field sqrsum 0.0053659811532967
field min 8.496e-007
field max 0.00050175715
statistic Basic.rack[5].node[0].app 	hops
field count 113353
field mean 5.3236438382751
field stddev 1.0159414740709
field sum 603451
field sqrsum 3329553
field min 4
field max 7
statistic Basic.rack[5].node[1].app 	throughput
field count 113925
field mean 56963
field stddev 32887.459045965
field sum 6489509775
field sqrsum 4.9288043058118e+014
field min 1
field max 113925
statistic Basic.rack[5].node[1].app 	"End-to-End Delay"
field count 113925
field mean 0.00011974168560349
field stddev 0.00018231146723
field sum 13.641571532378
field sqrsum 0.0054200104252905
field min 8.496e-007
field max 0.000498662708
statistic Basic.rack[5].node[1].app 	hops
field count 113925
field mean 5.3194821154268
field stddev 1.0153780943357
field sum 606022
field sqrsum 3341178
field min 4
field max 7
statistic Basic.rack[5].node[2].app 	throughput
field count 113337
field mean 56669
field stddev 32717.718066821
field sum 6422694453
field sqrsum 4.8528808837792e+014
field min 1
field max 113337
statistic Basic.rack[5].node[2].app 	"End-to-End Delay"
field count 113337
field mean 0.00012032541330889
field stddev 0.00018259028147197
field sum 13.637321368189
field sqrsum 0.0054194491352576
field min 8.496e-007
field max 0.000500636531
statistic Basic.rack[5].node[2].app 	hops
field count 113337
field mean 5.3263894403416
field stddev 1.0168786339917
field sum 603677
field sqrsum 3332613
field min 4
field max 7
statistic Basic.rack[5].node[3].app 	throughput
field count 114009
field mean 57005
field stddev 32911.707757271
field sum 6499083045
field sqrsum 4.9397147227928e+014
field min 1
field max 114009
statistic Basic.rack[5].node[3].app 	"End-to-End Delay"
field count 114009
field mean 0.00011928838416579
field stddev 0.00018198433435352
field sum 13.599949390358
field sqrsum 0.0053980669002066
field min 8.496e-007
field max 0.000492887004
statistic Basic.rack[5].node[3].app 	hops
field count 114009
field mean 5.3218517836311
field stddev 1.0141703995317
field sum 606739
field sqrsum 3346237
field min 4
field max 7
statistic Basic.rack[5].node[4].app 	throughput
field count 113556
field mean 56778.5
field stddev 32780.937921298
field sum 6447539346
field sqrsum 4.8810666782937e+014
field min 1
field max 113556
statistic Basic.rack[5].node[4].app 	"End-to-End Delay"
field count 113556
field mean 0.00011967063877857
field stddev 0.00018222448710025
field sum 13.589319057139
field sqrsum 0.0053969229889675
field min 8.496e-007
field max 0.000513656699
statistic Basic.rack[5].node[4].app 	hops
field count 113556
field mean 5.3222550988059
field stddev 1.0187420591004
field sum 604374
field sqrsum 3334484
field min 4
field max 7
statistic Basic.rack[5].node[5].app 	throughput
field count 114216
field mean 57108.5
field stddev 32971.463510133
field sum 6522704436
field sqrsum 4.966669808096e+014
field min 1
field max 114216
statistic Basic.rack[5].node[5].app 	"End-to-End Delay"
field count 114216
field mean 0.00012004388708799
field stddev 0.00018242096665443
field sum 13.710932607642
field sqrsum 0.0054466929233397
field min 8.496e-007
field max 0.000504822453
statistic Basic.rack[5].node[5].app 	hops
field count 114216
field mean 5.3225117321566
field stddev 1.0153657184565
field sum 607916
field sqrsum 3353392
field min 4
field max 7
statistic Basic.rack[5].node[6].app 	throughput
field count 113592
field mean 56796.5
field stddev 32791.330226144
field sum 6451628028
field sqrsum 4.8857103784706e+014
field min 1
field max 113592
statistic Basic.rack[5].node[6].app 	"End-to-End Delay"
field count 113592
field mean 0.00012029350149193
field stddev 0.00018259119140001
field sum 13.664379421471
field sqrsum 0.0054308080953277
field min 8.496e-007
field max 0.000493478098
statistic Basic.rack[5].node[6].app 	hops
field count 113592
field mean 5.3220121135291
field stddev 1.017396033912
field sum 604538
field sqrsum 3334936
field min 4
field max 7
statistic Basic.rack[5].node[7].app 	throughput
field count 113637
field mean 56819
field stddev 32804.320607201
field sum 6456740703
field sqrsum 4.8915191442478e+014
field min 1
field max 113637
statistic Basic.rack[5].node[7].app 	"End-to-End Delay"
field count 113637
field mean 0.00012102290498186
field stddev 0.00018292763496548
field sum 13.752679853423
field sqrsum 0.0054669361482833
field min 8.496e-007
field max 0.000511709924
statistic Basic.rack[5].node[7].app 	hops
field count 113637
field mean 5.321673398629
field stddev 1.0156539499902
field sum 604739
field sqrsum 3335445
field min 4
field max 7
statistic Basic.rack[5].node[8].app 	throughput
field count 113456
field mean 56728.5
field stddev 32752.070407838
field sum 6436188696
field sqrsum 4.8681829519182e+014
field min 1
field max 113456
statistic Basic.rack[5].node[8].app 	"End-to-End Delay"
field count 113456
field mean 0.00012045430096664
field stddev 0.00018258328780639
field sum 13.666263170471
field sqrsum 0.0054283705953935
field min 8.496e-007
field max 0.000532137707
statistic Basic.rack[5].node[8].app 	hops
field count 113456
field mean 5.3228740657171
field stddev 1.0162076331099
field sum 603912
field sqrsum 3331710
field min 4
field max 7
statistic Basic.rack[5].node[9].app 	throughput
field count 113921
field mean 56961
field stddev 32886.304345426
field sum 6489054081
field sqrsum 4.9282851632576e+014
field min 1
field max 113921
statistic Basic.rack[5].node[9].app 	"End-to-End Delay"
field count 113921
field mean 0.00012040052491635
field stddev 0.00018259188691577
field sum 13.716148198995
field sqrsum 0.0054495011363067
field min 8.496e-007
field max 0.000520548311
statistic Basic.rack[5].node[9].app 	hops
field count 113921
field mean 5.3252078194538
field stddev 1.018455490556
field sum 606653
field sqrsum 3348717
field min 4
field max 7
statistic Basic.rack[5].eps.queue[0] 	dropsum
field count 0
field mean nan
field stddev nan
field sum 0
field sqrsum 0
field min nan
field max nan
statistic Basic.rack[5].eps.queue[1] 	dropsum
field count 0
field mean nan
field stddev nan
field sum 0
field sqrsum 0
field min nan
field max nan
statistic Basic.rack[5].eps.queue[2] 	dropsum
field count 0
field mean nan
field stddev nan
field sum 0
field sqrsum 0
field min nan
field max nan
statistic Basic.rack[5].eps.queue[3] 	dropsum
field count 0
field mean nan
field stddev nan
field sum 0
field sqrsum 0
field min nan
field max nan
statistic Basic.rack[6].node[0].app 	throughput
field count 98911
field mean 49456
field stddev 28553.29057511
field sum 4891742416
field sqrsum 3.2256638665346e+014
field min 1
field max 98911
statistic Basic.rack[6].node[0].app 	"End-to-End Delay"
field count 98911
field mean 0.00039578401906731
field stddev 0.00024886345980425
field sum 39.147393109967
field sqrsum 0.021619707750073
field min 8.496e-007
field max 0.000904599258
statistic Basic.rack[6].node[0].app 	hops
field count 98911
field mean 5.0816592694442
field stddev 1.0275324081851
field sum 502632
field sqrsum 2658636
field min 3
field max 7
statistic Basic.rack[6].node[1].app 	throughput
field count 99342
field mean 49671.5
field stddev 28677.709558122
field sum 4934466153
field sqrsum 3.2680146920294e+014
field min 1
field max 99342
statistic Basic.rack[6].node[1].app 	"End-to-End Delay"
field count 99342
field mean 0.00039481380826545
field stddev 0.00024864158585533
field sum 39.221593340706
field sqrsum 0.021626749336163
field min 8.496e-007
field max 0.000905823767
statistic Basic.rack[6].node[1].app 	hops
field count 99342
field mean 5.0773791548388
field stddev 1.0317641030197
field sum 504397
field sqrsum 2666767
field min 3
field max 7
statistic Basic.rack[6].node[2].app 	throughput
field count 98554
field mean 49277.5
field stddev 28450.233552058
field sum 4856494735
field sqrsum 3.190862735737e+014
field min 1
field max 98554
statistic Basic.rack[6].node[2].app 	"End-to-End Delay"
field count 98554
field mean 0.00039452800590384
field stddev 0.00024881297501759
field sum 38.882313093847
field sqrsum 0.021441370377265
field min 8.496e-007
field max 0.000899805251
statistic Basic.rack[6].node[2].app 	hops
field count 98554
field mean 5.0749842725815
field stddev 1.0262743449172
field sum 500160
field sqrsum 2642104
field min 3
field max 7
statistic Basic.rack[6].node[3].app 	throughput
field count 98584
field mean 49292.5
field stddev 28458.893806096
field sum 4859451820
field sqrsum 3.1937775196586e+014
field min 1
field max 98584
statistic Basic.rack[6].node[3].app 	"End-to-End Delay"
field count 98584
field mean 0.00039614452688721
field stddev 0.00024841415088166
field sum 39.053512038649
field sqrsum 0.021554351596123
field min 8.496e-007
field max 0.000911468224
statistic Basic.rack[6].node[3].app 	hops
field count 98584
field mean 5.0849427899051
field stddev 1.0264088859582
field sum 501294
field sqrsum 2652910
field min 3
field max 7
statistic Basic.rack[6].node[4].app 	throughput
field count 99171
field mean 49586
field stddev 28628.346110106
field sum 4917493206
field sqrsum 3.2511678498589e+014
field min 1
field max 99171
statistic Basic.rack[6].node[4].app 	"End-to-End Delay"
field count 99171
field mean 0.0003956953059341
field stddev 0.00024949723682181
field sum 39.241499184791
field sqrsum 0.02170089758033
field min 8.496e-007
field max 0.000905453036
statistic Basic.rack[6].node[4].app 	hops
field count 99171
field mean 5.0830484718315
field stddev 1.0299439986597
field sum 504091
field sqrsum 2667517
field min 3
field max 7
statistic Basic.rack[6].node[5].app 	throughput
field count 99090
field mean 49545.5
field stddev 28604.963424203
field sum 4909463595
field sqrsum 3.2432080157356e+014
field min 1
field max 99090
statistic Basic.rack[6].node[5].app 	"End-to-End Delay"
field count 99090
field mean 0.00039482504723851
field stddev 0.00024807102158895
field sum 39.123213930864
field sqrsum 0.021544685723468
field min 8.496e-007
field max 0.000898586235
statistic Basic.rack[6].node[5].app 	hops
field count 99090
field mean 5.0743465536381
field stddev 1.0255704458837
field sum 502817
field sqrsum 2655689
field min 3
field max 7
statistic Basic.rack[6].node[6].app 	throughput
field count 98851
field mean 49426
field stddev 28535.970067034
field sum 4885809526
field sqrsum 3.2197973357293e+014
field min 1
field max 98851
statistic Basic.rack[6].node[6].app 	"End-to-End Delay"
field count 98851
field mean 0.00039634715746083
field stddev 0.00024857483448671
field sum 39.17931286216
field sqrsum 0.021636496252604
field min 8.496e-007
field max 0.000916205878
statistic Basic.rack[6].node[6].app 	hops
field count 98851
field mean 5.0844199856349
field stddev 1.0296195859904
field sum 502600
field sqrsum 2660222
field min 3
field max 7
statistic Basic.rack[6].node[7].app 	throughput
field count 98538
field mean 49269.5
field stddev 28445.614749905
field sum 4854917991
field sqrsum 3.1893089097077e+014
field min 1
field max 98538
statistic Basic.rack[6].node[7].app 	"End-to-End Delay"
field count 98538
field mean 0.00039590714657746
field stddev 0.00024855898707177
field sum 39.01189840945
field sqrsum 0.02153285995028
field min 8.496e-007
field max 0.000909124453
statistic Basic.rack[6].node[7].app 	hops
field count 98538
field mean 5.0775639854675
field stddev 1.0319208770936
field sum 500333
field sqrsum 2645401
field min 3
field max 7
statistic Basic.rack[6].node[8].app 	throughput
field count 99147
field mean 49574
field stddev 28621.417906875
field sum 4915113378
field sqrsum 3.2488080243017e+014
field min 1
field max 99147
statistic Basic.rack[6].node[8].app 	"End-to-End Delay"
field count 99147
field mean 0.00039581278447797
field stddev 0.0002482971387834
field sum 39.243650142637
field sqrsum 0.021645634994203
field min 8.496e-007
field max 0.000897240552
statistic Basic.rack[6].node[8].app 	hops
field count 99147
field mean 5.0799419044449
field stddev 1.0270894603786
field sum 503661
field sqrsum 2663159
field min 3
field max 7
statistic Basic.rack[6].node[9].app 	throughput
field count 98370
field mean 49185.5
field stddev 28397.117327292
field sum 4838377635
field sqrsum 3.1730241809584e+014
field min 1
field max 98370
statistic Basic.rack[6].node[9].app 	"End-to-End Delay"
field count 98370
field mean 0.00039523097245459
field stddev 0.00024741512471314
field sum 38.878870760358
field sqrsum 0.021387717860373
field min 8.496e-007
field max 0.000890990728
statistic Basic.rack[6].node[9].app 	hops
field count 98370
field mean 5.0775846294602
field stddev 1.0271545892977
field sum 499482
field sqrsum 2639946
field min 3
field max 7
statistic Basic.rack[6].eps.queue[0] 	dropsum
field count 0
field mean nan
field stddev nan
field sum 0
field sqrsum 0
field min nan
field max nan
statistic Basic.rack[6].eps.queue[1] 	dropsum
field count 398318
field mean 199159.5
field stddev 114984.64659848
field sum 79328813721
field sqrsum 2.106542272537e+016
field min 1
field max 398318
statistic Basic.rack[6].eps.queue[2] 	dropsum
field count 0
field mean nan
field stddev nan
field sum 0
field sqrsum 0
field min nan
field max nan
statistic Basic.rack[6].eps.queue[3] 	dropsum
field count 0
field mean nan
field stddev nan
field sum 0
field sqrsum 0
field min nan
field max nan
statistic Basic.rack[7].node[0].app 	throughput
field count 97166
field mean 48583.5
field stddev 28049.552465236
field sum 4720664361
field sqrsum 3.0579362242207e+014
field min 1
field max 97166
statistic Basic.rack[7].node[0].app 	"End-to-End Delay"
field count 97166
field mean 0.00038118729239433
field stddev 0.00023679520593742
field sum 37.038444452788
field sqrsum 0.019566817277262
field min 8.496e-007
field max 0.000896927446
statistic Basic.rack[7].node[0].app 	hops
field count 97166
field mean 5.0256777061935
field stddev 1.0086995342541
field sum 488325
field sqrsum 2553027
field min 3
field max 7
statistic Basic.rack[7].node[1].app 	throughput
field count 97315
field mean 48658
field stddev 28092.565060291
field sum 4735153270
field sqrsum 3.0720253869779e+014
field min 1
field max 97315
statistic Basic.rack[7].node[1].app 	"End-to-End Delay"
field count 97315
field mean 0.00038075077762752
field stddev 0.00023743496021126
field sum 37.052761924822
field sqrsum 0.019593979731328
field min 8.496e-007
field max 0.000896546579
statistic Basic.rack[7].node[1].app 	hops
field count 97315
field mean 5.0243127986436
field stddev 1.0107143094463
field sum 488941
field sqrsum 2556003
field min 3
field max 7
statistic Basic.rack[7].node[2].app 	throughput
field count 97095
field mean 48548
field stddev 28029.056530679
field sum 4713768060
field sqrsum 3.0512377777982e+014
field min 1
field max 97095
statistic Basic.rack[7].node[2].app 	"End-to-End Delay"
field count 97095
field mean 0.00038021213615499
field stddev 0.00023624823898734
field sum 36.916697359969
field sqrsum 0.019455306157869
field min 8.496e-007
field max 0.000899557892
statistic Basic.rack[7].node[2].app 	hops
field count 97095
field mean 5.0208455636233
field stddev 1.0059343997061
field sum 487499
field sqrsum 2545907
field min 3
field max 7
statistic Basic.rack[7].node[3].app 	throughput
field count 97326
field mean 48663.5
field stddev 28095.740486771
field sum 4736223801
field sqrsum 3.0730672384535e+014
field min 1
field max 97326
statistic Basic.rack[7].node[3].app 	"End-to-End Delay"
field count 97326
field mean 0.00038068667929656
field stddev 0.00023679718948673
field sum 37.050711749217
field sqrsum 0.019562008284827
field min 8.496e-007
field max 0.000891763961
statistic Basic.rack[7].node[3].app 	hops
field count 97326
field mean 5.0260978566878
field stddev 1.0041256351824
field sum 489170
field sqrsum 2556746
field min 3
field max 7
statistic Basic.rack[7].node[4].app 	throughput
field count 96702
field mean 48351.5
field stddev 27915.607202782
field sum 4675686753
field sqrsum 3.0143373215466e+014
field min 1
field max 96702
statistic Basic.rack[7].node[4].app 	"End-to-End Delay"
field count 96702
field mean 0.00037971500588029
field stddev 0.00023748030828964
field sum 36.719200498635
field sqrsum 0.019396467753166
field min 8.496e-007
field max 0.000877677507
statistic Basic.rack[7].node[4].app 	hops
field count 96702
field mean 5.0217368823809
field stddev 1.0049891008178
field sum 485612
field sqrsum 2536284
field min 3
field max 7
statistic Basic.rack[7].node[5].app 	throughput
field count 96978
field mean 48489.5
field stddev 27995.281539931
field sum 4702414731
field sqrsum 3.0402208466019e+014
field min 1
field max 96978
statistic Basic.rack[7].node[5].app 	"End-to-End Delay"
field count 96978
field mean 0.00038004235616205
field stddev 0.00023733326478853
field sum 36.855747615883
field sqrsum 0.019469176261039
field min 8.496e-007
field max 0.000892987935
statistic Basic.rack[7].node[5].app 	hops
field count 96978
field mean 5.0263049351399
field stddev 1.0055267432411
field sum 487441
field sqrsum 2548079
field min 3
field max 7
statistic Basic.rack[7].node[6].app 	throughput
field count 97158
field mean 48579.5
field stddev 28047.243064159
field sum 4719887061
field sqrsum 3.0571809801078e+014
field min 1
field max 97158
statistic Basic.rack[7].node[6].app 	"End-to-End Delay"
field count 97158
field mean 0.00038050713714879
field stddev 0.00023617642700055
field sum 36.969312431102
field sqrsum 0.019486437139414
field min 8.496e-007
field max 0.000885388942
statistic Basic.rack[7].node[6].app 	hops
field count 97158
field mean 5.0241565285411
field stddev 1.0017754683691
field sum 488137
field sqrsum 2549979
field min 3
field max 7
statistic Basic.rack[7].node[7].app 	throughput
field count 97703
field mean 48852
field stddev 28204.571012515
field sum 4772986956
field sqrsum 3.1089168737036e+014
field min 1
field max 97703
statistic Basic.rack[7].node[7].app 	"End-to-End Delay"
field count 97703
field mean 0.00038069591216486
field stddev 0.00023690147744778
field sum 37.195132706243
field sqrsum 0.019643296906971
field min 8.496e-007
field max 0.000896535144
statistic Basic.rack[7].node[7].app 	hops
field count 97703
field mean 5.0238170782883
field stddev 1.0067202577957
field sum 490842
field sqrsum 2564920
field min 3
field max 7
statistic Basic.rack[7].node[8].app 	throughput
field count 96988
field mean 48494.5
field stddev 27998.168291277
field sum 4703384566
field sqrsum 3.0411614265299e+014
field min 1
field max 96988
statistic Basic.rack[7].node[8].app 	"End-to-End Delay"
field count 96988
field mean 0.00038141748584728
field stddev 0.00023686007188669
field sum 36.992919117356
field sqrsum 0.01955097815333
field min 8.496e-007
field max 0.000888979714
statistic Basic.rack[7].node[8].app 	hops
field count 96988
field mean 5.0330865674104
field stddev 1.005694988176
field sum 488149
field sqrsum 2554991
field min 3
field max 7
statistic Basic.rack[7].node[9].app 	throughput
field count 96896
field mean 48448.5
field stddev 27971.610178894
field sum 4694465856
field sqrsum 3.0325154054394e+014
field min 1
field max 96896
statistic Basic.rack[7].node[9].app 	"End-to-End Delay"
field count 96896
field mean 0.00038045810986331
field stddev 0.00023789355788047
field sum 36.864869013315
field sqrsum 0.019509150537412
field min 8.496e-007
field max 0.000884247052
statistic Basic.rack[7].node[9].app 	hops
field count 96896
field mean 5.0286389531044
field stddev 1.0063195071463
field sum 487255
field sqrsum 2548353
field min 3
field max 7
statistic Basic.rack[7].eps.queue[0] 	dropsum
field count 398657
field mean 199329
field stddev 115082.5074691
field sum 79463901153
field sqrsum 2.1119253449219e+016
field min 1
field max 398657
statistic Basic.rack[7].eps.queue[1] 	dropsum
field count 0
field mean nan
field stddev nan
field sum 0
field sqrsum 0
field min nan
field max nan
statistic Basic.rack[7].eps.queue[2] 	dropsum
field count 0
field mean nan
field stddev nan
field sum 0
field sqrsum 0
field min nan
field max nan
statistic Basic.rack[7].eps.queue[3] 	dropsum
field count 0
field mean nan
field stddev nan
field sum 0
field sqrsum 0
field min nan
field max nan
statistic Basic.rack[8].node[0].app 	throughput
field count 113764
field mean 56882.5
field stddev 32840.982349294
field sum 6471180730
field sqrsum 4.9079376010539e+014
field min 1
field max 113764
statistic Basic.rack[8].node[0].app 	"End-to-End Delay"
field count 113764
field mean 0.00012048705695045
field stddev 0.00018266297420835
field sum 13.707089546912
field sqrsum 0.0054473160779518
field min 8.496e-007
field max 0.000511978319
statistic Basic.rack[8].node[0].app 	hops
field count 113764
field mean 5.3207253612742
field stddev 1.016683928074
field sum 605307
field sqrsum 3338263
field min 4
field max 7
statistic Basic.rack[8].node[1].app 	throughput
field count 114144
field mean 57072.5
field stddev 32950.678900441
field sum 6514483440
field sqrsum 4.9572830334472e+014
field min 1
field max 114144
statistic Basic.rack[8].node[1].app 	"End-to-End Delay"
field count 114144
field mean 0.00012090034966985
field stddev 0.00018294334779572
field sum 13.800049512715
field sqrsum 0.0054885993832526
field min 8.496e-007
field max 0.000503645174
statistic Basic.rack[8].node[1].app 	hops
field count 114144
field mean 5.3199467339501
field stddev 1.0177521804289
field sum 607240
field sqrsum 3348716
field min 4
field max 7
statistic Basic.rack[8].node[2].app 	throughput
field count 113420
field mean 56710.5
field stddev 32741.678102993
field sum 6432104910
field sqrsum 4.8635503662977e+014
field min 1
field max 113420
statistic Basic.rack[8].node[2].app 	"End-to-End Delay"
field count 113420
field mean 0.00012047989304722
field stddev 0.00018266107467341
field sum 13.664829469416
field sqrsum 0.0054305698632554
field min 8.496e-007
field max 0.000499737137
statistic Basic.rack[8].node[2].app 	hops
field count 113420
field mean 5.3236554399577
field stddev 1.0202973307362
field sum 603809
field sqrsum 3332541
field min 4
field max 7
statistic Basic.rack[8].node[3].app 	throughput
field count 113504
field mean 56752.5
field stddev 32765.926814299
field sum 6441635760
field sqrsum 4.8743643074728e+014
field min 1
field max 113504
statistic Basic.rack[8].node[3].app 	"End-to-End Delay"
field count 113504
field mean 0.00012083683627894
field stddev 0.00018285959033152
field sum 13.715464265005
field sqrsum 0.0054526046023693
field min 8.496e-007
field max 0.000516226049
statistic Basic.rack[8].node[3].app 	hops
field count 113504
field mean 5.3188874400902
field stddev 1.0182292599633
field sum 603715
field sqrsum 3328771
field min 4
field max 7
statistic Basic.rack[8].node[4].app 	throughput
field count 113577
field mean 56789
field stddev 32787.000099125
field sum 6449924253
field sqrsum 4.883775145634e+014
field min 1
field max 113577
statistic Basic.rack[8].node[4].app 	"End-to-End Delay"
field count 113577
field mean 0.00012092979481418
field stddev 0.00018281867705517
field sum 13.73484330561
field sqrsum 0.0054569648007749
field min 8.496e-007
field max 0.000500112409
statistic Basic.rack[8].node[4].app 	hops
field count 113577
field mean 5.3153807549064
field stddev 1.0166304909409
field sum 603705
field sqrsum 3326307
field min 4
field max 7
statistic Basic.rack[8].node[5].app 	throughput
field count 113085
field mean 56543
field stddev 32644.971932903
field sum 6394165155
field sqrsum 4.8205824242384e+014
field min 1
field max 113085
statistic Basic.rack[8].node[5].app 	"End-to-End Delay"
field count 113085
field mean 0.00012154078618207
field stddev 0.00018321643325867
field sum 13.7444398054
field sqrsum 0.0054665432935507
field min 8.496e-007
field max 0.000501793249
statistic Basic.rack[8].node[5].app 	hops
field count 113085
field mean 5.3135340672945
field stddev 1.0174511739764
field sum 600881
field sqrsum 3309867
field min 4
field max 7
statistic Basic.rack[8].node[6].app 	throughput
field count 113563
field mean 56782
field stddev 32782.95864724
field sum 6448334266
field sqrsum 4.8819693894459e+014
field min 1
field max 113563
statistic Basic.rack[8].node[6].app 	"End-to-End Delay"
field count 113563
field mean 0.00011979711022114
field stddev 0.00018231123781287
field sum 13.604519228044
field sqrsum 0.0054042862811183
field min 8.496e-007
field max 0.000498510971
statistic Basic.rack[8].node[6].app 	hops
field count 113563
field mean 5.3203948469132
field stddev 1.0159496326635
field sum 604200
field sqrsum 3331796
field min 4
field max 7
statistic Basic.rack[8].node[7].app 	throughput
field count 113831
field mean 56916
field stddev 32860.323583312
field sum 6478805196
field sqrsum 4.9166140911232e+014
field min 1
field max 113831
statistic Basic.rack[8].node[7].app 	"End-to-End Delay"
field count 113831
field mean 0.00012142612002191
field stddev 0.00018324863396053
field sum 13.822056668214
field sqrsum 0.0055007771521478
field min 8.496e-007
field max 0.000503039692
statistic Basic.rack[8].node[7].app 	hops
field count 113831
field mean 5.3206068645624
field stddev 1.0179296291203
field sum 605650
field sqrsum 3340374
field min 4
field max 7
statistic Basic.rack[8].node[8].app 	throughput
field count 113437
field mean 56719
field stddev 32746.585580281
field sum 6434033203
field sqrsum 4.8657376097688e+014
field min 1
field max 113437
statistic Basic.rack[8].node[8].app 	"End-to-End Delay"
field count 113437
field mean 0.00012055169106384
field stddev 0.00018274334582064
field sum 13.675022179209
field sqrsum 0.0054367570658266
field min 8.496e-007
field max 0.000504221412
statistic Basic.rack[8].node[8].app 	hops
field count 113437
field mean 5.3140774174211
field stddev 1.0175045485379
field sum 602813
field sqrsum 3320837
field min 4
field max 7
statistic Basic.rack[8].node[9].app 	throughput
field count 113841
field mean 56921
field stddev 32863.210334658
field sum 6479943561
field sqrsum 4.9179099659972e+014
field min 1
field max 113841
statistic Basic.rack[8].node[9].app 	"End-to-End Delay"
field count 113841
field mean 0.00012124401702044
field stddev 0.00018306241222423
field sum 13.802540141624
field sqrsum 0.0054884640480795
field min 8.496e-007
field max 0.000504591467
statistic Basic.rack[8].node[9].app 	hops
field count 113841
field mean 5.3139642132448
field stddev 1.0157936356412
field sum 604947
field sqrsum 3332131
field min 4
field max 7
statistic Basic.rack[8].eps.queue[0] 	dropsum
field count 0
field mean nan
field stddev nan
field sum 0
field sqrsum 0
field min nan
field max nan
statistic Basic.rack[8].eps.queue[1] 	dropsum
field count 0
field mean nan
field stddev nan
field sum 0
field sqrsum 0
field min nan
field max nan
statistic Basic.rack[8].eps.queue[2] 	dropsum
field count 0
field mean nan
field stddev nan
field sum 0
field sqrsum 0
field min nan
field max nan
statistic Basic.rack[8].eps.queue[3] 	dropsum
field count 0
field mean nan
field stddev nan
field sum 0
field sqrsum 0
field min nan
field max nan
statistic Basic.rack[9].node[0].app 	throughput
field count 113568
field mean 56784.5
field stddev 32784.402022913
field sum 6448902096
field sqrsum 4.8826142512638e+014
field min 1
field max 113568
statistic Basic.rack[9].node[0].app 	"End-to-End Delay"
field count 113568
field mean 0.00012045885176575
field stddev 0.00018266012813813
field sum 13.680270877333
field sqrsum 0.0054370411518279
field min 8.496e-007
field max 0.000516093022
statistic Basic.rack[9].node[0].app 	hops
field count 113568
field mean 5.3113200901662
field stddev 1.0131739719181
field sum 603196
field sqrsum 3320346
field min 4
field max 7
statistic Basic.rack[9].node[1].app 	throughput
field count 114264
field mean 57132.5
field stddev 32985.319916593
field sum 6528187980
field sqrsum 4.9729342362714e+014
field min 1
field max 114264
statistic Basic.rack[9].node[1].app 	"End-to-End Delay"
field count 114264
field mean 0.00012048374427238
field stddev 0.00018267750684034
field sum 13.766954555539
field sqrsum 0.005471772975501
field min 8.496e-007
field max 0.000504142589
statistic Basic.rack[9].node[1].app 	hops
field count 114264
field mean 5.3140621718126
field stddev 1.0178369694232
field sum 607206
field sqrsum 3345106
field min 4
field max 7
statistic Basic.rack[9].node[2].app 	throughput
field count 113969
field mean 56985
field stddev 32900.160751887
field sum 6494523465
field sqrsum 4.9345172802954e+014
field min 1
field max 113969
statistic Basic.rack[9].node[2].app 	"End-to-End Delay"
field count 113969
field mean 0.00012008643715536
field stddev 0.00018241236920615
field sum 13.68613115616
field sqrsum 0.005435721010358
field min 8.496e-007
field max 0.000504960143
statistic Basic.rack[9].node[2].app 	hops
field count 113969
field mean 5.3138046310839
field stddev 1.0165393583498
field sum 605609
field sqrsum 3335857
field min 4
field max 7
statistic Basic.rack[9].node[3].app 	throughput
field count 113979
field mean 56990
field stddev 32903.047503233
field sum 6495663210
field sqrsum 4.9358162989613e+014
field min 1
field max 113979
statistic Basic.rack[9].node[3].app 	"End-to-End Delay"
field count 113979
field mean 0.00011998040140524
field stddev 0.00018235848645336
field sum 13.675246171768
field sqrsum 0.0054310563277155
field min 8.496e-007
field max 0.0004920138
statistic Basic.rack[9].node[3].app 	hops
field count 113979
field mean 5.3093376850122
field stddev 1.0116942948023
field sum 605153
field sqrsum 3329621
field min 4
field max 7
statistic Basic.rack[9].node[4].app 	throughput
field count 113861
field mean 56931
field stddev 32868.98383735
field sum 6482220591
field sqrsum 4.9205023988143e+014
field min 1
field max 113861
statistic Basic.rack[9].node[4].app 	"End-to-End Delay"
field count 113861
field mean 0.00012117941846971
field stddev 0.00018300736337871
field sum 13.797609766379
field sqrsum 0.0054853507262491
field min 8.496e-007
field max 0.000522623155
statistic Basic.rack[9].node[4].app 	hops
field count 113861
field mean 5.3133557583369
field stddev 1.0167522677048
field sum 604984
field sqrsum 3332202
field min 4
field max 7
statistic Basic.rack[9].node[5].app 	throughput
field count 114043
field mean 57022
field stddev 32921.522711847
field sum 6502959946
field sqrsum 4.9441354173443e+014
field min 1
field max 114043
statistic Basic.rack[9].node[5].app 	"End-to-End Delay"
field count 114043
field mean 0.00012091403609656
field stddev 0.00018286056812058
field sum 13.789399418559
field sqrsum 0.0054806668950808
field min 8.496e-007
field max 0.000518653862
statistic Basic.rack[9].node[5].app 	hops
field count 114043
field mean 5.3110756469051
field stddev 1.0153254734669
field sum 605691
field sqrsum 3334435
field min 4
field max 7
statistic Basic.rack[9].node[6].app 	throughput
field count 113656
field mean 56828.5
field stddev 32809.805434758
field sum 6458899996
field sqrsum 4.8939731159692e+014
field min 1
field max 113656
statistic Basic.rack[9].node[6].app 	"End-to-End Delay"
field count 113656
field mean 0.00012094800608878
field stddev 0.00018293186841711
field sum 13.746466580026
field sqrsum 0.0054659664270075
field min 8.496e-007
field max 0.0005275225
statistic Basic.rack[9].node[6].app 	hops
field count 113656
field mean 5.3105423382839
field stddev 1.014957461749
field sum 603575
field sqrsum 3322391
field min 4
field max 7
statistic Basic.rack[9].node[7].app 	throughput
field count 113229
field mean 56615
field stddev 32686.541152285
field sum 6410459835
field sqrsum 4.8390210792476e+014
field min 1
field max 113229
statistic Basic.rack[9].node[7].app 	"End-to-End Delay"
field count 113229
field mean 0.00011989361313062
field stddev 0.00018233329449339
field sum 13.575433921167
field sqrsum 0.0053919214024609
field min 8.496e-007
field max 0.000504183418
statistic Basic.rack[9].node[7].app 	hops
field count 113229
field mean 5.3186727781752
field stddev 1.0174855656271
field sum 602228
field sqrsum 3320276
field min 4
field max 7
statistic Basic.rack[9].node[8].app 	throughput
field count 114074
field mean 57037.5
field stddev 32930.47164102
field sum 6506495775
field sqrsum 4.9481683485682e+014
field min 1
field max 114074
statistic Basic.rack[9].node[8].app 	"End-to-End Delay"
field count 114074
field mean 0.00011962053663358
field stddev 0.00018215521400337
field sum 13.64559309594
field sqrsum 0.005417294853627
field min 8.496e-007
field max 0.000505394889
statistic Basic.rack[9].node[8].app 	hops
field count 114074
field mean 5.3089398109999
field stddev 1.0146522534514
field sum 605612
field sqrsum 3332598
field min 4
field max 7
statistic Basic.rack[9].node[9].app 	throughput
field count 113387
field mean 56694
field stddev 32732.151823551
field sum 6428362578
field sqrsum 4.8593064120865e+014
field min 1
field max 113387
statistic Basic.rack[9].node[9].app 	"End-to-End Delay"
field count 113387
field mean 0.00011942305040905
field stddev 0.00018199922306427
field sum 13.541021416731
field sqrsum 0.0053728758812256
field min 8.496e-007
field max 0.000493588127
statistic Basic.rack[9].node[9].app 	hops
field count 113387
field mean 5.3161208956935
field stddev 1.015894021539
field sum 602779
field sqrsum 3321465
field min 4
field max 7
statistic Basic.rack[9].eps.queue[0] 	dropsum
field count 0
field mean nan
field stddev nan
field sum 0
field sqrsum 0
field min nan
field max nan
statistic Basic.rack[9].eps.queue[1] 	dropsum
field count 0
field mean nan
field stddev nan
field sum 0
field sqrsum 0
field min nan
field max nan
statistic Basic.rack[9].eps.queue[2] 	dropsum
field count 0
field mean nan
field stddev nan
field sum 0
field sqrsum 0
field min nan
field max nan
statistic Basic.rack[9].eps.queue[3] 	dropsum
field count 0
field mean nan
field stddev nan
field sum 0
field sqrsum 0
field min nan
field max nan
statistic Basic.rack[10].node[0].app 	throughput
field count 95522
field mean 47761.5
field stddev 27574.970543955
field sum 4562274003
field sqrsum 2.9053321230104e+014
field min 1
field max 95522
statistic Basic.rack[10].node[0].app 	"End-to-End Delay"
field count 95522
field mean 0.0003696961402798
field stddev 0.00022744846729766
field sum 35.314114711807
field sqrsum 0.017997061199127
field min 8.496e-007
field max 0.00089054178
statistic Basic.rack[10].node[0].app 	hops
field count 95522
field mean 4.986338225749
field stddev 0.9848953540956
field sum 476305
field sqrsum 2467675
field min 3
field max 7
statistic Basic.rack[10].node[1].app 	throughput
field count 95107
field mean 47554
field stddev 27455.170363097
field sum 4522718278
field sqrsum 2.8676295241659e+014
field min 1
field max 95107
statistic Basic.rack[10].node[1].app 	"End-to-End Delay"
field count 95107
field mean 0.00036894128794244
field stddev 0.00022693467673341
field sum 35.088899072342
field sqrsum 0.017843640559957
field min 8.496e-007
field max 0.000884555363
statistic Basic.rack[10].node[1].app 	hops
field count 95107
field mean 4.9798332404555
field stddev 0.98634996571452
field sum 473617
field sqrsum 2451061
field min 3
field max 7
statistic Basic.rack[10].node[2].app 	throughput
field count 95289
field mean 47645
field stddev 27507.709237594
field sum 4540044405
field sqrsum 2.8841237422016e+014
field min 1
field max 95289
statistic Basic.rack[10].node[2].app 	"End-to-End Delay"
field count 95289
field mean 0.00036942883176342
field stddev 0.00022799618275406
field sum 35.202503949905
field sqrsum 0.017958105438343
field min 8.496e-007
field max 0.000894577758
statistic Basic.rack[10].node[2].app 	hops
field count 95289
field mean 4.9793680277891
field stddev 0.98679169285459
field sum 474479
field sqrsum 2455393
field min 3
field max 7
statistic Basic.rack[10].node[3].app 	throughput
field count 95110
field mean 47555.5
field stddev 27456.036388501
field sum 4523003605
field sqrsum 2.8679008958224e+014
field min 1
field max 95110
statistic Basic.rack[10].node[3].app 	"End-to-End Delay"
field count 95110
field mean 0.00036947681492755
field stddev 0.00022809421543901
field sum 35.140939867759
field sqrsum 0.017931995731842
field min 8.496e-007
field max 0.000886040737
statistic Basic.rack[10].node[3].app 	hops
field count 95110
field mean 4.9828934917464
field stddev 0.98797386309168
field sum 473923
field sqrsum 2454343
field min 3
field max 7
statistic Basic.rack[10].node[4].app 	throughput
field count 95772
field mean 47886.5
field stddev 27647.139327605
field sum 4586185878
field sqrsum 2.9282032466717e+014
field min 1
field max 95772
statistic Basic.rack[10].node[4].app 	"End-to-End Delay"
field count 95772
field mean 0.00036979819277542
field stddev 0.00022828776697594
field sum 35.416312518488
field sqrsum 0.018088023196247
field min 8.496e-007
field max 0.000889197082
statistic Basic.rack[10].node[4].app 	hops
field count 95772
field mean 4.984024558326
field stddev 0.98781646568296
field sum 477330
field sqrsum 2472476
field min 3
field max 7
statistic Basic.rack[10].node[5].app 	throughput
field count 95030
field mean 47515.5
field stddev 27432.942377733
field sum 4515397965
field sqrsum 2.8606701754196e+014
field min 1
field max 95030
statistic Basic.rack[10].node[5].app 	"End-to-End Delay"
field count 95030
field mean 0.00036813786233281
field stddev 0.00022791612069474
field sum 34.984141057487
field sqrsum 0.017815340348328
field min 8.496e-007
field max 0.000882830164
statistic Basic.rack[10].node[5].app 	hops
field count 95030
field mean 4.9801010207303
field stddev 0.9853944546301
field sum 473259
field sqrsum 2449151
field min 3
field max 7
statistic Basic.rack[10].node[6].app 	throughput
field count 95453
field mean 47727
field stddev 27555.051959668
field sum 4555685331
field sqrsum 2.8990407316174e+014
field min 1
field max 95453
statistic Basic.rack[10].node[6].app 	"End-to-End Delay"
field count 95453
field mean 0.0003696706725029
field stddev 0.00022720565208438
field sum 35.286174702419
field sqrsum 0.017971726053081
field min 8.496e-007
field max 0.000886626392
statistic Basic.rack[10].node[6].app 	hops
field count 95453
field mean 4.9790787088934
field stddev 0.98720611546104
field sum 475268
field sqrsum 2459422
field min 3
field max 7
statistic Basic.rack[10].node[7].app 	throughput
field count 95783
field mean 47892
field stddev 27650.314754086
field sum 4587239436
field sqrsum 2.929212323454e+014
field min 1
field max 95783
statistic Basic.rack[10].node[7].app 	"End-to-End Delay"
field count 95783
field mean 0.00036882613904083
field stddev 0.00022744579046695
field sum 35.327274075747
field sqrsum 0.017984577023807
field min 8.496e-007
field max 0.000885690277
statistic Basic.rack[10].node[7].app 	hops
field count 95783
field mean 4.9777517931157
field stddev 0.98870016825586
field sum 476784
field sqrsum 2466942
field min 3
field max 7
statistic Basic.rack[10].node[8].app 	throughput
field count 95398
field mean 47699.5
field stddev 27539.174827265
field sum 4550436901
field sqrsum 2.894032364667e+014
field min 1
field max 95398
statistic Basic.rack[10].node[8].app 	"End-to-End Delay"
field count 95398
field mean 0.00036857621592369
field stddev 0.00022861254648286
field sum 35.161433846688
field sqrsum 0.017945468080029
field min 8.496e-007
field max 0.00088171733
statistic Basic.rack[10].node[8].app 	hops
field count 95398
field mean 4.9801044047045
field stddev 0.98397613989955
field sum 475092
field sqrsum 2458372
field min 3
field max 7
statistic Basic.rack[10].node[9].app 	throughput
field count 95199
field mean 47600
field stddev 27481.72847548
field sum 4531472400
field sqrsum 2.875959378292e+014
field min 1
field max 95199
statistic Basic.rack[10].node[9].app 	"End-to-End Delay"
field count 95199
field mean 0.00036844018239982
field stddev 0.0002282074549924
field sum 35.075136924281
field sqrsum 0.017880872456138
field min 8.496e-007
field max 0.000878288014
statistic Basic.rack[10].node[9].app 	hops
field count 95199
field mean 4.9800943287219
field stddev 0.98721463241043
field sum 474100
field sqrsum 2453842
field min 3
field max 7
statistic Basic.rack[10].eps.queue[0] 	dropsum
field count 0
field mean nan
field stddev nan
field sum 0
field sqrsum 0
field min nan
field max nan
statistic Basic.rack[10].eps.queue[1] 	dropsum
field count 395367
field mean 197684
field stddev 114132.7662763
field sum 78157730028
field sqrsum 2.0600684217849e+016
field min 1
field max 395367
statistic Basic.rack[10].eps.queue[2] 	dropsum
field count 0
field mean nan
field stddev nan
field sum 0
field sqrsum 0
field min nan
field max nan
statistic Basic.rack[10].eps.queue[3] 	dropsum
field count 0
field mean nan
field stddev nan
field sum 0
field sqrsum 0
field min nan
field max nan
statistic Basic.rack[11].node[0].app 	throughput
field count 97436
field mean 48718.5
field stddev 28127.494751577
field sum 4746935766
field sqrsum 3.0834987117591e+014
field min 1
field max 97436
statistic Basic.rack[11].node[0].app 	"End-to-End Delay"
field count 97436
field mean 0.00038600545327294
field stddev 0.00024323654463958
field sum 37.610827345103
field sqrsum 0.020282630419434
field min 8.496e-007
field max 0.000899833594
statistic Basic.rack[11].node[0].app 	hops
field count 97436
field mean 5.0403444312164
field stddev 1.0159118225158
field sum 491111
field sqrsum 2575929
field min 3
field max 7
statistic Basic.rack[11].node[1].app 	throughput
field count 96995
field mean 48498
field stddev 28000.189017219
field sum 4704063510
field sqrsum 3.0418199478947e+014
field min 1
field max 96995
statistic Basic.rack[11].node[1].app 	"End-to-End Delay"
field count 96995
field mean 0.00038801902236856
field stddev 0.00024320191011925
field sum 37.635905074638
field sqrsum 0.02034036761131
field min 8.496e-007
field max 0.000886053718
statistic Basic.rack[11].node[1].app 	hops
field count 96995
field mean 5.0481261920718
field stddev 1.0180918375592
field sum 489643
field sqrsum 2572315
field min 3
field max 7
statistic Basic.rack[11].node[2].app 	throughput
field count 97096
field mean 48548.5
field stddev 28029.345205814
field sum 4713865156
field sqrsum 3.0513320541304e+014
field min 1
field max 97096
statistic Basic.rack[11].node[2].app 	"End-to-End Delay"
field count 97096
field mean 0.0003857915963671
field stddev 0.00024338720174839
field sum 37.45882084086
field sqrsum 0.020202946844139
field min 8.496e-007
field max 0.000880475273
[...]
field min 4
field max 7
statistic Basic.rack[13].node[2].app 	throughput
field count 114228
field mean 57114.5
field stddev 32974.927611748
field sum 6524075106
field sqrsum 4.9682354216381e+014
field min 1
field max 114228
statistic Basic.rack[13].node[2].app 	"End-to-End Delay"
field count 114228
field mean 0.00012021939866999
field stddev 0.00018252002915794
field sum 13.732421471275
field sqrsum 0.0054562115889115
field min 8.496e-007
field max 0.000501537714
statistic Basic.rack[13].node[2].app 	hops
field count 114228
field mean 5.3204905977519
field stddev 1.0190485298612
field sum 607749
field sqrsum 3352143
field min 4
field max 7
statistic Basic.rack[13].node[3].app 	throughput
field count 113622
field mean 56811.5
field stddev 32799.990480182
field sum 6455036253
field sqrsum 4.88958237771e+014
field min 1
field max 113622
statistic Basic.rack[13].node[3].app 	"End-to-End Delay"
field count 113622
field mean 0.00011920872469025
field stddev 0.00018199857478512
field sum 13.544733716756
field sqrsum 0.0053781734927746
field min 8.496e-007
field max 0.000504001026
statistic Basic.rack[13].node[3].app 	hops
field count 113622
field mean 5.3192867578462
field stddev 1.0161254093155
field sum 604388
field sqrsum 3332228
field min 4
field max 7
statistic Basic.rack[13].node[4].app 	throughput
field count 113282
field mean 56641.5
field stddev 32701.840934418
field sum 6416462403
field sqrsum 4.8458193477856e+014
field min 1
field max 113282
statistic Basic.rack[13].node[4].app 	"End-to-End Delay"
field count 113282
field mean 0.0001196159839129
field stddev 0.00018219911420826
field sum 13.550337889622
field sqrsum 0.0053813716660228
field min 8.496e-007
field max 0.000506712613
statistic Basic.rack[13].node[4].app 	hops
field count 113282
field mean 5.3196359527551
field stddev 1.0176334875478
field sum 602619
field sqrsum 3323025
field min 4
field max 7
statistic Basic.rack[13].node[5].app 	throughput
field count 114262
field mean 57131.5
field stddev 32984.742566324
field sum 6527959453
field sqrsum 4.9726731133228e+014
field min 1
field max 114262
statistic Basic.rack[13].node[5].app 	"End-to-End Delay"
field count 114262
field mean 0.00011942730922733
field stddev 0.00018203704811731
field sum 13.646003206933
field sqrsum 0.0054160278339374
field min 8.496e-007
field max 0.000493219009
statistic Basic.rack[13].node[5].app 	hops
field count 114262
field mean 5.3224169015071
field stddev 1.0163684366838
field sum 608150
field sqrsum 3354860
field min 4
field max 7
statistic Basic.rack[13].node[6].app 	throughput
field count 113522
field mean 56761.5
field stddev 32771.122966722
field sum 6443679003
field sqrsum 4.8766836641204e+014
field min 1
field max 113522
statistic Basic.rack[13].node[6].app 	"End-to-End Delay"
field count 113522
field mean 0.00011917080922167
field stddev 0.00018193692250517
field sum 13.528508604462
field sqrsum 0.0053698669078443
field min 8.496e-007
field max 0.000491863682
statistic Basic.rack[13].node[6].app 	hops
field count 113522
field mean 5.3213385951622
field stddev 1.018010178618
field sum 604089
field sqrsum 3332209
field min 4
field max 7
statistic Basic.rack[13].node[7].app 	throughput
field count 113681
field mean 56841
field stddev 32817.022313123
field sum 6461741721
field sqrsum 4.8972032763724e+014
field min 1
field max 113681
statistic Basic.rack[13].node[7].app 	"End-to-End Delay"
field count 113681
field mean 0.00011980553992476
field stddev 0.00018228411428972
field sum 13.619613584187
field sqrsum 0.0054090071683092
field min 8.496e-007
field max 0.000502419436
statistic Basic.rack[13].node[7].app 	hops
field count 113681
field mean 5.3207835962034
field stddev 1.0166150687825
field sum 604872
field sqrsum 3335882
field min 4
field max 7
statistic Basic.rack[13].node[8].app 	throughput
field count 113496
field mean 56748.5
field stddev 32763.617413222
field sum 6440727756
field sqrsum 4.8733337183924e+014
field min 1
field max 113496
statistic Basic.rack[13].node[8].app 	"End-to-End Delay"
field count 113496
field mean 0.00012017530098419
field stddev 0.00018251905847431
field sum 13.639415960501
field sqrsum 0.005420003313439
field min 8.496e-007
field max 0.000494064041
statistic Basic.rack[13].node[8].app 	hops
field count 113496
field mean 5.3220730246
field stddev 1.0166027473614
field sum 604034
field sqrsum 3332008
field min 4
field max 7
statistic Basic.rack[13].node[9].app 	throughput
field count 113562
field mean 56781.5
field stddev 32782.669972106
field sum 6448220703
field sqrsum 4.8818404238962e+014
field min 1
field max 113562
statistic Basic.rack[13].node[9].app 	"End-to-End Delay"
field count 113562
field mean 0.00011989188510066
field stddev 0.00018234465364977
field sum 13.615162255802
field sqrsum 0.0054082021958483
field min 8.496e-007
field max 0.000505734095
statistic Basic.rack[13].node[9].app 	hops
field count 113562
field mean 5.3213310790581
field stddev 1.0164474911126
field sum 604301
field sqrsum 3333013
field min 4
field max 7
statistic Basic.rack[13].eps.queue[0] 	dropsum
field count 0
field mean nan
field stddev nan
field sum 0
field sqrsum 0
field min nan
field max nan
statistic Basic.rack[13].eps.queue[1] 	dropsum
field count 0
field mean nan
field stddev nan
field sum 0
field sqrsum 0
field min nan
field max nan
statistic Basic.rack[13].eps.queue[2] 	dropsum
field count 0
field mean nan
field stddev nan
field sum 0
field sqrsum 0
field min nan
field max nan
statistic Basic.rack[13].eps.queue[3] 	dropsum
field count 0
field mean nan
field stddev nan
field sum 0
field sqrsum 0
field min nan
field max nan
statistic Basic.rack[14].node[0].app 	throughput
field count 98488
field mean 49244.5
field stddev 28431.180993175
field sum 4849992316
field sqrsum 3.1844564547624e+014
field min 1
field max 98488
statistic Basic.rack[14].node[0].app 	"End-to-End Delay"
field count 98488
field mean 0.00039153459600436
field stddev 0.00024725875082629
field sum 38.561459291277
field sqrsum 0.021119334256608
field min 8.496e-007
field max 0.000893963681
statistic Basic.rack[14].node[0].app 	hops
field count 98488
field mean 5.0653480627081
field stddev 1.0253789102454
field sum 498876
field sqrsum 2630530
field min 3
field max 7
statistic Basic.rack[14].node[1].app 	throughput
field count 98109
field mean 49055
field stddev 28321.773117162
field sum 4812736995
field sqrsum 3.1478348014064e+014
field min 1
field max 98109
statistic Basic.rack[14].node[1].app 	"End-to-End Delay"
field count 98109
field mean 0.00039219504976773
field stddev 0.00024795148246488
field sum 38.477864137662
field sqrsum 0.021122501564033
field min 8.496e-007
field max 0.000891943086
statistic Basic.rack[14].node[1].app 	hops
field count 98109
field mean 5.0654374216433
field stddev 1.0257613182343
field sum 496965
field sqrsum 2620573
field min 3
field max 7
statistic Basic.rack[14].node[2].app 	throughput
field count 98670
field mean 49335.5
field stddev 28483.719867672
field sum 4867933785
field sqrsum 3.202143070219e+014
field min 1
field max 98670
statistic Basic.rack[14].node[2].app 	"End-to-End Delay"
field count 98670
field mean 0.00039219197283046
field stddev 0.00024698163655357
field sum 38.697581959181
field sqrsum 0.021195682986582
field min 8.496e-007
field max 0.000896305679
statistic Basic.rack[14].node[2].app 	hops
field count 98670
field mean 5.06649437519
field stddev 1.030141624465
field sum 499911
field sqrsum 2637503
field min 3
field max 7
statistic Basic.rack[14].node[3].app 	throughput
field count 97651
field mean 48826
field stddev 28189.559905516
field sum 4767907726
field sqrsum 3.1039556087033e+014
field min 1
field max 97651
statistic Basic.rack[14].node[3].app 	"End-to-End Delay"
field count 97651
field mean 0.00039223349002806
field stddev 0.00024658641736451
field sum 38.30199253473
field sqrsum 0.020960918905905
field min 8.496e-007
field max 0.000891092318
statistic Basic.rack[14].node[3].app 	hops
field count 97651
field mean 5.0688574617771
field stddev 1.026764226353
field sum 494979
field sqrsum 2611925
field min 3
field max 7
statistic Basic.rack[14].node[4].app 	throughput
field count 98520
field mean 49260.5
field stddev 28440.418597482
field sum 4853144460
field sqrsum 3.1875614584762e+014
field min 1
field max 98520
statistic Basic.rack[14].node[4].app 	"End-to-End Delay"
field count 98520
field mean 0.0003929024537207
field stddev 0.00024701149848131
field sum 38.708749740563
field sqrsum 0.02121986805008
field min 8.496e-007
field max 0.000894942164
statistic Basic.rack[14].node[4].app 	hops
field count 98520
field mean 5.0725436459602
field stddev 1.0273047818805
field sum 499747
field sqrsum 2638961
field min 3
field max 7
statistic Basic.rack[14].node[5].app 	throughput
field count 98159
field mean 49080
field stddev 28336.206873892
field sum 4817643720
field sqrsum 3.1526499915556e+014
field min 1
field max 98159
statistic Basic.rack[14].node[5].app 	"End-to-End Delay"
field count 98159
field mean 0.00039182570646007
field stddev 0.0002465831428698
field sum 38.461219520414
field sqrsum 0.021038419564885
field min 8.496e-007
field max 0.000902474374
statistic Basic.rack[14].node[5].app 	hops
field count 98159
field mean 5.0636008924296
field stddev 1.0271579632234
field sum 497038
field sqrsum 2620364
field min 3
field max 7
statistic Basic.rack[14].node[6].app 	throughput
field count 97611
field mean 48806
field stddev 28178.012900132
field sum 4764002466
field sqrsum 3.1001428447331e+014
field min 1
field max 97611
statistic Basic.rack[14].node[6].app 	"End-to-End Delay"
field count 97611
field mean 0.00039206981530607
field stddev 0.00024645158159384
field sum 38.270326741841
field sqrsum 0.02093331341124
field min 8.496e-007
field max 0.000885809322
statistic Basic.rack[14].node[6].app 	hops
field count 97611
field mean 5.0665088975628
field stddev 1.0270604824834
field sum 494547
field sqrsum 2608591
field min 3
field max 7
statistic Basic.rack[14].node[7].app 	throughput
field count 98043
field mean 49022
field stddev 28302.720558278
field sum 4806263946
field sqrsum 3.1414862612643e+014
field min 1
field max 98043
statistic Basic.rack[14].node[7].app 	"End-to-End Delay"
field count 98043
field mean 0.00039239163481648
field stddev 0.00024620502593821
field sum 38.471253052312
field sqrsum 0.021038801439186
field min 8.496e-007
field max 0.000890457598
statistic Basic.rack[14].node[7].app 	hops
field count 98043
field mean 5.0630947645421
field stddev 1.0248125048943
field sum 496401
field sqrsum 2616293
field min 3
field max 7
statistic Basic.rack[14].node[8].app 	throughput
field count 97708
field mean 48854.5
field stddev 28206.014388188
field sum 4773475486
field sqrsum 3.1093941968255e+014
field min 1
field max 97708
statistic Basic.rack[14].node[8].app 	"End-to-End Delay"
field count 97708
field mean 0.00039144368610504
field stddev 0.00024734713828923
field sum 38.247179681951
field sqrsum 0.020949390548374
field min 8.496e-007
field max 0.000896077692
statistic Basic.rack[14].node[8].app 	hops
field count 97708
field mean 5.0676096123142
field stddev 1.0223903490661
field sum 495146
field sqrsum 2611338
field min 3
field max 7
statistic Basic.rack[14].node[9].app 	throughput
field count 97914
field mean 48957.5
field stddev 28265.481465915
field sum 4793624655
field sqrsum 3.1291024085466e+014
field min 1
field max 97914
statistic Basic.rack[14].node[9].app 	"End-to-End Delay"
field count 97914
field mean 0.00039221713457614
field stddev 0.00024697811172949
field sum 38.403548514888
field sqrsum 0.021035045305737
field min 8.496e-007
field max 0.000905480231
statistic Basic.rack[14].node[9].app 	hops
field count 97914
field mean 5.0661600996793
field stddev 1.0240109361205
field sum 496048
field sqrsum 2615730
field min 3
field max 7
statistic Basic.rack[14].eps.queue[0] 	dropsum
field count 0
field mean nan
field stddev nan
field sum 0
field sqrsum 0
field min nan
field max nan
statistic Basic.rack[14].eps.queue[1] 	dropsum
field count 394814
field mean 197407.5
field stddev 113973.12892687
field sum 77939244705
field sqrsum 2.0514362619007e+016
field min 1
field max 394814
statistic Basic.rack[14].eps.queue[2] 	dropsum
field count 0
field mean nan
field stddev nan
field sum 0
field sqrsum 0
field min nan
field max nan
statistic Basic.rack[14].eps.queue[3] 	dropsum
field count 0
field mean nan
field stddev nan
field sum 0
field sqrsum 0
field min nan
field max nan
statistic Basic.rack[15].node[0].app 	throughput
field count 97852
field mean 48926.5
field stddev 28247.58360757
field sum 4787555878
field sqrsum 3.1231620770133e+014
field min 1
field max 97852
statistic Basic.rack[15].node[0].app 	"End-to-End Delay"
field count 97852
field mean 0.00038312203383078
field stddev 0.00023995028480807
field sum 37.489257254409
field sqrsum 0.019996843280965
field min 8.496e-007
field max 0.000896141334
statistic Basic.rack[15].node[0].app 	hops
field count 97852
field mean 5.0371888157626
field stddev 1.00867292913
field sum 492899
field sqrsum 2582381
field min 3
field max 7
statistic Basic.rack[15].node[1].app 	throughput
field count 98010
field mean 49005.5
field stddev 28293.194278837
field sum 4803029055
field sqrsum 3.1383151946338e+014
field min 1
field max 98010
statistic Basic.rack[15].node[1].app 	"End-to-End Delay"
field count 98010
field mean 0.0003821526508315
field stddev 0.00023938524093025
field sum 37.454781307995
field sqrsum 0.019929878481179
field min 8.496e-007
field max 0.00089172108
statistic Basic.rack[15].node[1].app 	hops
field count 98010
field mean 5.0285583103765
field stddev 1.0156016728231
field sum 492849
field sqrsum 2579411
field min 3
field max 7
statistic Basic.rack[15].node[2].app 	throughput
field count 97260
field mean 48630.5
field stddev 28076.687927888
field sum 4729802430
field sqrsum 3.0668196616201e+014
field min 1
field max 97260
statistic Basic.rack[15].node[2].app 	"End-to-End Delay"
field count 97260
field mean 0.00038257936374506
field stddev 0.00023919502657974
field sum 37.209668917844
field sqrsum 0.019800253245112
field min 8.496e-007
field max 0.00089724154
statistic Basic.rack[15].node[2].app 	hops
field count 97260
field mean 5.0295393789842
field stddev 1.0108457457331
field sum 489173
field sqrsum 2559695
field min 3
field max 7
statistic Basic.rack[15].node[3].app 	throughput
field count 97972
field mean 48986.5
field stddev 28282.224623722
field sum 4799305378
field sqrsum 3.1346663076407e+014
field min 1
field max 97972
statistic Basic.rack[15].node[3].app 	"End-to-End Delay"
field count 97972
field mean 0.00038310207835846
field stddev 0.00023939853451276
field sum 37.533276820935
field sqrsum 0.019993956835644
field min 8.496e-007
field max 0.00091803134
statistic Basic.rack[15].node[3].app 	hops
field count 97972
field mean 5.0325092883681
field stddev 1.0145940705788
field sum 493045
field sqrsum 2582105
field min 3
field max 7
statistic Basic.rack[15].node[4].app 	throughput
field count 97542
field mean 48771.5
field stddev 28158.094315845
field sum 4757269653
field sqrsum 3.0935731675184e+014
field min 1
field max 97542
statistic Basic.rack[15].node[4].app 	"End-to-End Delay"
field count 97542
field mean 0.00038304333916514
field stddev 0.0002394785162318
field sum 37.362813388846
field sqrsum 0.019905549223734
field min 8.496e-007
field max 0.000883474809
statistic Basic.rack[15].node[4].app 	hops
field count 97542
field mean 5.0385372454942
field stddev 1.0116560534774
field sum 491469
field sqrsum 2576113
field min 3
field max 7
statistic Basic.rack[15].node[5].app 	throughput
field count 97538
field mean 48769.5
field stddev 28156.939615306
field sum 4756879491
field sqrsum 3.0931926015527e+014
field min 1
field max 97538
statistic Basic.rack[15].node[5].app 	"End-to-End Delay"
field count 97538
field mean 0.00038252057833361
field stddev 0.00023883255590132
field sum 37.310292169504
field sqrsum 0.019835561556536
field min 8.496e-007
field max 0.000892338292
statistic Basic.rack[15].node[5].app 	hops
field count 97538
field mean 5.0303163895097
field stddev 1.01184509156
field sum 490647
field sqrsum 2567971
field min 3
field max 7
statistic Basic.rack[15].node[6].app 	throughput
field count 97226
field mean 48613.5
field stddev 28066.872973311
field sum 4726496151
field sqrsum 3.063604520168e+014
field min 1
field max 97226
statistic Basic.rack[15].node[6].app 	"End-to-End Delay"
field count 97226
field mean 0.00038352112780312
field stddev 0.00023792810892571
field sum 37.288225171786
field sqrsum 0.019804708519935
field min 8.496e-007
field max 0.000895797122
statistic Basic.rack[15].node[6].app 	hops
field count 97226
field mean 5.0354534795219
field stddev 1.0096311308475
field sum 489577
field sqrsum 2564349
field min 3
field max 7
statistic Basic.rack[15].node[7].app 	throughput
field count 97419
field mean 48710
field stddev 28122.587274289
field sum 4745279490
field sqrsum 3.0818850351737e+014
field min 1
field max 97419
statistic Basic.rack[15].node[7].app 	"End-to-End Delay"
field count 97419
field mean 0.0003849200535591
field stddev 0.00023953404061855
field sum 37.498526697674
field sqrsum 0.020023444297181
field min 8.496e-007
field max 0.000887072683
statistic Basic.rack[15].node[7].app 	hops
field count 97419
field mean 5.0409776327
field stddev 1.0138360870218
field sum 491087
field sqrsum 2575691
field min 3
field max 7
statistic Basic.rack[15].node[8].app 	throughput
field count 97090
field mean 48545.5
field stddev 28027.613155006
field sum 4713282595
field sqrsum 3.0507664252656e+014
field min 1
field max 97090
statistic Basic.rack[15].node[8].app 	"End-to-End Delay"
field count 97090
field mean 0.00038240461447004
field stddev 0.0002400119841323
field sum 37.127664018896
field sqrsum 0.019790674952425
field min 8.496e-007
field max 0.000892668729
statistic Basic.rack[15].node[8].app 	hops
field count 97090
field mean 5.0276959522093
field stddev 1.0123429748464
field sum 488139
field sqrsum 2553715
field min 3
field max 7
statistic Basic.rack[15].node[9].app 	throughput
field count 97430
field mean 48715.5
field stddev 28125.76270077
field sum 4746351165
field sqrsum 3.0829291145436e+014
field min 1
field max 97430
statistic Basic.rack[15].node[9].app 	"End-to-End Delay"
field count 97430
field mean 0.00038119644082618
field stddev 0.00024051522774227
field sum 37.139969229695
field sqrsum 0.019793655445596
field min 8.496e-007
field max 0.000892390367
statistic Basic.rack[15].node[9].app 	hops
field count 97430
field mean 5.0290362311403
field stddev 1.011865763049
field sum 489979
field sqrsum 2563877
field min 3
field max 7
statistic Basic.rack[15].eps.queue[0] 	dropsum
field count 398809
field mean 199405
field stddev 115126.38608956
field sum 79524508645
field sqrsum 2.1143419686923e+016
field min 1
field max 398809
statistic Basic.rack[15].eps.queue[1] 	dropsum
field count 0
field mean nan
field stddev nan
field sum 0
field sqrsum 0
field min nan
field max nan
statistic Basic.rack[15].eps.queue[2] 	dropsum
field count 0
field mean nan
field stddev nan
field sum 0
field sqrsum 0
field min nan
field max nan
statistic Basic.rack[15].eps.queue[3] 	dropsum
field count 0
field mean nan
field stddev nan
field sum 0
field sqrsum 0
field min nan
field max nan
