version 2
run Basic-72-20180510-20:15:26-14712
attr configname Basic
attr datetime 20180510-20:15:26
attr experiment Basic
attr inifile omnetpp.ini
attr iterationvars "$0=exponential(0.05 ms), $1=6, $2=2"
attr iterationvarsf exponential(0.05_ms),6,2-
attr measurement "$0=exponential(0.05 ms), $1=6, $2=2"
attr network Networks.Basic
attr processid 14712
attr repetition 0
attr replication #0
attr resultdir results
attr runnumber 72
attr seedset 72
param **.frameCapacity 50
param **.packetLength "1024 bytes"
param **.pattern 6
param **.sendIaTime "exponential(0.05 ms)"
param **.tp 2

statistic Basic.rack[0].node[0].app 	throughput
field count 75949
field mean 37975
field stddev 21924.732134434
field sum 2884163275
field sqrsum 1.4603383910308e+014
field min 1
field max 75949
statistic Basic.rack[0].node[0].app 	"End-to-End Delay"
field count 75949
field mean 0.00034498674546948
field stddev 0.00029948815363251
field sum 26.201398331661
field sqrsum 0.015851150809805
field min 9.4416e-006
field max 0.001394894821
statistic Basic.rack[0].node[0].app 	hops
field count 75949
field mean 5.5359780905608
field stddev 0.79264389905406
field sum 420452
field sqrsum 2375330
field min 4
field max 9
statistic Basic.rack[0].node[1].app 	throughput
field count 76449
field mean 38225
field stddev 22069.069701734
field sum 2922263025
field sqrsum 1.4893703141982e+014
field min 1
field max 76449
statistic Basic.rack[0].node[1].app 	"End-to-End Delay"
field count 76449
field mean 0.00034502398208614
field stddev 0.00030030802230087
field sum 26.376738406503
field sqrsum 0.015995063185983
field min 9.4416e-006
field max 0.001333254369
statistic Basic.rack[0].node[1].app 	hops
field count 76449
field mean 5.5351933969051
field stddev 0.79025135423998
field sum 423160
field sqrsum 2390014
field min 4
field max 9
statistic Basic.rack[0].node[2].app 	throughput
field count 75757
field mean 37879
field stddev 21869.30650859
field sum 2869599403
field sqrsum 1.4492911784852e+014
field min 1
field max 75757
statistic Basic.rack[0].node[2].app 	"End-to-End Delay"
field count 75757
field mean 0.00034568752586972
field stddev 0.00029959269380481
field sum 26.188249897312
field sqrsum 0.015852490348781
field min 9.4416e-006
field max 0.001409675634
statistic Basic.rack[0].node[2].app 	hops
field count 75757
field mean 5.5357128714178
field stddev 0.79424367899723
field sum 419369
field sqrsum 2369295
field min 4
field max 9
statistic Basic.rack[0].node[3].app 	throughput
field count 76750
field mean 38375.5
field stddev 22155.960917249
field sum 2945319625
field sqrsum 1.5070316925238e+014
field min 1
field max 76750
statistic Basic.rack[0].node[3].app 	"End-to-End Delay"
field count 76750
field mean 0.00034430083246769
field stddev 0.0002998632740617
field sum 26.425088891895
field sqrsum 0.015999295390834
field min 9.4416e-006
field max 0.001348882863
statistic Basic.rack[0].node[3].app 	hops
field count 76750
field mean 5.5319087947883
field stddev 0.7905136273921
field sum 424574
field sqrsum 2396666
field min 4
field max 9
statistic Basic.rack[0].node[4].app 	throughput
field count 76661
field mean 38331
field stddev 22130.26883027
field sum 2938492791
field sqrsum 1.5017951006483e+014
field min 1
field max 76661
statistic Basic.rack[0].node[4].app 	"End-to-End Delay"
field count 76661
field mean 0.00034476753095759
field stddev 0.00029941677030058
field sum 26.43022369074
field sqrsum 0.015984882807685
field min 9.4416e-006
field max 0.001520826243
statistic Basic.rack[0].node[4].app 	hops
field count 76661
field mean 5.5355395833605
field stddev 0.79346751126397
field sum 424360
field sqrsum 2397326
field min 4
field max 9
statistic Basic.rack[0].node[5].app 	throughput
field count 76382
field mean 38191.5
field stddev 22049.728467716
field sum 2917143153
field sqrsum 1.4854579125602e+014
field min 1
field max 76382
statistic Basic.rack[0].node[5].app 	"End-to-End Delay"
field count 76382
field mean 0.00034372065126346
field stddev 0.00029976062270528
field sum 26.254070784806
field sqrsum 0.015887390358927
field min 9.4416e-006
field max 0.001388935158
statistic Basic.rack[0].node[5].app 	hops
field count 76382
field mean 5.5327825927575
field stddev 0.79357183251296
field sum 422605
field sqrsum 2386283
field min 4
field max 9
statistic Basic.rack[0].node[6].app 	throughput
field count 76483
field mean 38242
field stddev 22078.884656311
field sum 2924862886
field sqrsum 1.4913583369425e+014
field min 1
field max 76483
statistic Basic.rack[0].node[6].app 	"End-to-End Delay"
field count 76483
field mean 0.00034382346726658
field stddev 0.00030002983620787
field sum 26.29665024695
field sqrsum 0.015926154693198
field min 9.4416e-006
field max 0.001341359881
statistic Basic.rack[0].node[6].app 	hops
field count 76483
field mean 5.5397408574454
field stddev 0.78992999998537
field sum 423696
field sqrsum 2394890
field min 4
field max 9
statistic Basic.rack[0].node[7].app 	throughput
field count 76668
field mean 38334.5
field stddev 22132.289556212
field sum 2939029446
field sqrsum 1.5022065272043e+014
field min 1
field max 76668
statistic Basic.rack[0].node[7].app 	"End-to-End Delay"
field count 76668
field mean 0.00034491074775223
field stddev 0.00029945647891579
field sum 26.443617208668
field sqrsum 0.015995738354733
field min 9.4416e-006
field max 0.001440789736
statistic Basic.rack[0].node[7].app 	hops
field count 76668
field mean 5.5319559659832
field stddev 0.79333499221192
field sum 424124
field sqrsum 2394488
field min 4
field max 9
statistic Basic.rack[0].node[8].app 	throughput
field count 76790
field mean 38395.5
field stddev 22167.507922633
field sum 2948390445
field sqrsum 1.5093891764452e+014
field min 1
field max 76790
statistic Basic.rack[0].node[8].app 	"End-to-End Delay"
field count 76790
field mean 0.00034367550309233
field stddev 0.00029927697218946
field sum 26.39084188246
field sqrsum 0.015947623654384
field min 9.4416e-006
field max 0.001415569589
statistic Basic.rack[0].node[8].app 	hops
field count 76790
field mean 5.540317749707
field stddev 0.79403383732532
field sum 425441
field sqrsum 2405493
field min 4
field max 9
statistic Basic.rack[0].node[9].app 	throughput
field count 76099
field mean 38050
field stddev 21968.033404624
field sum 2895566950
field sqrsum 1.4690079807435e+014
field min 1
field max 76099
statistic Basic.rack[0].node[9].app 	"End-to-End Delay"
field count 76099
field mean 0.0003446394733657
field stddev 0.00029933884852981
field sum 26.226719283656
field sqrsum 0.015857428603336
field min 9.4416e-006
field max 0.001368718181
statistic Basic.rack[0].node[9].app 	hops
field count 76099
field mean 5.5358940327731
field stddev 0.79566806469966
field sum 421276
field sqrsum 2380316
field min 4
field max 9
statistic Basic.rack[0].eps.queue[0] 	dropsum
field count 111552
field mean 55776.5
field stddev 32202.432951564
field sum 6221980128
field sqrsum 4.6271829215248e+014
field min 1
field max 111552
statistic Basic.rack[0].eps.queue[1] 	dropsum
field count 31
field mean 16
field stddev 9.0921211313239
field sum 496
field sqrsum 10416
field min 1
field max 31
statistic Basic.rack[0].eps.queue[2] 	dropsum
field count 0
field mean nan
field stddev nan
field sum 0
field sqrsum 0
field min nan
field max nan
statistic Basic.rack[0].eps.queue[3] 	dropsum
field count 0
field mean nan
field stddev nan
field sum 0
field sqrsum 0
field min nan
field max nan
statistic Basic.rack[1].node[0].app 	throughput
field count 96883
field mean 48442
field stddev 27967.857402144
field sum 4693206286
field sqrsum 3.0312950080645e+014
field min 1
field max 96883
statistic Basic.rack[1].node[0].app 	"End-to-End Delay"
field count 96883
field mean 0.00026675409548857
field stddev 0.00028287059226895
field sum 25.843937033219
field sqrsum 0.014646064067214
field min 8.496e-007
field max 0.001267766861
statistic Basic.rack[1].node[0].app 	hops
field count 96883
field mean 5.1246864775038
field stddev 0.81249065972914
field sum 496495
field sqrsum 2608337
field min 4
field max 8
statistic Basic.rack[1].node[1].app 	throughput
field count 97489
field mean 48745
field stddev 28142.794533711
field sum 4752101305
field sqrsum 3.0885332011586e+014
field min 1
field max 97489
statistic Basic.rack[1].node[1].app 	"End-to-End Delay"
field count 97489
field mean 0.00026572805801963
field stddev 0.00028290347358948
field sum 25.905562648276
field sqrsum 0.014686226040405
field min 8.496e-007
field max 0.001274738718
statistic Basic.rack[1].node[1].app 	hops
field count 97489
field mean 5.1232754464606
field stddev 0.81249471765655
field sum 499463
field sqrsum 2623243
field min 4
field max 8
statistic Basic.rack[1].node[2].app 	throughput
field count 97201
field mean 48601
field stddev 28059.656094946
field sum 4724065801
field sqrsum 3.061241879706e+014
field min 1
field max 97201
statistic Basic.rack[1].node[2].app 	"End-to-End Delay"
field count 97201
field mean 0.00026694151849084
field stddev 0.00028287986706309
field sum 25.946982538828
field sqrsum 0.014704369984402
field min 8.496e-007
field max 0.001267618297
statistic Basic.rack[1].node[2].app 	hops
field count 97201
field mean 5.125873190605
field stddev 0.81156089452619
field sum 498240
field sqrsum 2617934
field min 4
field max 8
statistic Basic.rack[1].node[3].app 	throughput
field count 97977
field mean 48989
field stddev 28283.667999395
field sum 4799795253
field sqrsum 3.135146262672e+014
field min 1
field max 97977
statistic Basic.rack[1].node[3].app 	"End-to-End Delay"
field count 97977
field mean 0.00026610410546063
field stddev 0.00028309225257616
field sum 26.072081940716
field sqrsum 0.014789804552894
field min 8.496e-007
field max 0.001298479804
statistic Basic.rack[1].node[3].app 	hops
field count 97977
field mean 5.1224777243639
field stddev 0.81269342188764
field sum 501885
field sqrsum 2635605
field min 4
field max 8
statistic Basic.rack[1].node[4].app 	throughput
field count 97213
field mean 48607
field stddev 28063.120196562
field sum 4725232291
field sqrsum 3.0623757954742e+014
field min 1
field max 97213
statistic Basic.rack[1].node[4].app 	"End-to-End Delay"
field count 97213
field mean 0.0002682227224009
field stddev 0.00028390730046037
field sum 26.074735512759
field sqrsum 0.014829449916135
field min 8.496e-007
field max 0.001272881623
statistic Basic.rack[1].node[4].app 	hops
field count 97213
field mean 5.1265468610165
field stddev 0.81309553687997
field sum 498367
field sqrsum 2619171
field min 4
field max 8
statistic Basic.rack[1].node[5].app 	throughput
field count 97561
field mean 48781
field stddev 28163.579143402
field sum 4759123141
field sqrsum 3.0953812821378e+014
field min 1
field max 97561
statistic Basic.rack[1].node[5].app 	"End-to-End Delay"
field count 97561
field mean 0.00026639879782019
field stddev 0.00028358555804684
field sum 25.990133114136
field sqrsum 0.014769590414358
field min 8.496e-007
field max 0.001272010821
statistic Basic.rack[1].node[5].app 	hops
field count 97561
field mean 5.1234714691321
field stddev 0.81391057064227
field sum 499851
field sqrsum 2625601
field min 4
field max 8
statistic Basic.rack[1].node[6].app 	throughput
field count 97453
field mean 48727
field stddev 28132.402228865
field sum 4748592331
field sqrsum 3.0851129515274e+014
field min 1
field max 97453
statistic Basic.rack[1].node[6].app 	"End-to-End Delay"
field count 97453
field mean 0.00026798648881253
field stddev 0.00028329283188734
field sum 26.116087294248
field sqrsum 0.014819752092112
field min 8.496e-007
field max 0.001274378274
statistic Basic.rack[1].node[6].app 	hops
field count 97453
field mean 5.1296111971925
field stddev 0.81325952421825
field sum 499896
field sqrsum 2628726
field min 4
field max 8
statistic Basic.rack[1].node[7].app 	throughput
field count 97520
field mean 48760.5
field stddev 28151.743462883
field sum 4755123960
field sqrsum 3.0914804409412e+014
field min 1
field max 97520
statistic Basic.rack[1].node[7].app 	"End-to-End Delay"
field count 97520
field mean 0.00026725025247873
field stddev 0.00028428196329196
field sum 26.062244621725
field sqrsum 0.014846259842457
field min 8.496e-007
field max 0.001278204614
statistic Basic.rack[1].node[7].app 	hops
field count 97520
field mean 5.1275328137818
field stddev 0.81526617251927
field sum 500037
field sqrsum 2628773
field min 4
field max 8
statistic Basic.rack[1].node[8].app 	throughput
field count 97061
field mean 48531
field stddev 28019.241576103
field sum 4710467391
field sqrsum 3.0480335378103e+014
field min 1
field max 97061
statistic Basic.rack[1].node[8].app 	"End-to-End Delay"
field count 97061
field mean 0.00026791559933606
field stddev 0.00028434585537117
field sum 26.004155987157
field sqrsum 0.014814469040731
field min 8.496e-007
field max 0.001273011948
statistic Basic.rack[1].node[8].app 	hops
field count 97061
field mean 5.1243753927942
field stddev 0.8164705461132
field sum 497377
field sqrsum 2613449
field min 4
field max 8
statistic Basic.rack[1].node[9].app 	throughput
field count 97606
field mean 48803.5
field stddev 28176.569524459
field sum 4763514421
field sqrsum 3.0996664688889e+014
field min 1
field max 97606
statistic Basic.rack[1].node[9].app 	"End-to-End Delay"
field count 97606
field mean 0.00026760925560365
field stddev 0.0002838394762032
field sum 26.12026900245
field sqrsum 0.014853557757482
field min 8.496e-007
field max 0.00126720285
statistic Basic.rack[1].node[9].app 	hops
field count 97606
field mean 5.1237321476139
field stddev 0.81478001356266
field sum 500107
field sqrsum 2627211
field min 4
field max 8
statistic Basic.rack[1].eps.queue[0] 	dropsum
field count 0
field mean nan
field stddev nan
field sum 0
field sqrsum 0
field min nan
field max nan
statistic Basic.rack[1].eps.queue[1] 	dropsum
field count 775567
field mean 387784
field stddev 223887.05244917
field sum 300752473528
field sqrsum 1.5550256267506e+017
field min 1
field max 775567
statistic Basic.rack[1].eps.queue[2] 	dropsum
field count 0
field mean nan
field stddev nan
field sum 0
field sqrsum 0
field min nan
field max nan
statistic Basic.rack[1].eps.queue[3] 	dropsum
field count 0
field mean nan
field stddev nan
field sum 0
field sqrsum 0
field min nan
field max nan
statistic Basic.rack[2].node[0].app 	throughput
field count 71690
field mean 35845.5
field stddev 20695.264736166
field sum 2569763895
field sqrsum 1.2281843900966e+014
field min 1
field max 71690
statistic Basic.rack[2].node[0].app 	"End-to-End Delay"
field count 71690
field mean 0.00041673305889074
field stddev 0.00028802523563875
field sum 29.875592991877
field sqrsum 0.018397361767133
field min 8.496e-007
field max 0.001246951267
statistic Basic.rack[2].node[0].app 	hops
field count 71690
field mean 4.6548751569257
field stddev 0.85594956347571
field sum 333708
field sqrsum 1605892
field min 3
field max 7
statistic Basic.rack[2].node[1].app 	throughput
field count 70758
field mean 35379.5
field stddev 20426.219510717
field sum 2503382661
field sqrsum 1.1809040134558e+014
field min 1
field max 70758
statistic Basic.rack[2].node[1].app 	"End-to-End Delay"
field count 70758
field mean 0.00041550237253296
field stddev 0.00028790891675377
field sum 29.400116875687
field sqrsum 0.018080975317907
field min 8.496e-007
field max 0.001246887098
statistic Basic.rack[2].node[1].app 	hops
field count 70758
field mean 4.6518556205659
field stddev 0.85728362864114
field sum 329156
field sqrsum 1583188
field min 3
field max 7
statistic Basic.rack[2].node[2].app 	throughput
field count 70843
field mean 35422
field stddev 20450.756897158
field sum 2509400746
field sqrsum 1.1851648783283e+014
field min 1
field max 70843
statistic Basic.rack[2].node[2].app 	"End-to-End Delay"
field count 70843
field mean 0.00041604846022425
field stddev 0.0002879302968181
field sum 29.474121067667
field sqrsum 0.018135737641074
field min 8.496e-007
field max 0.001247083182
statistic Basic.rack[2].node[2].app 	hops
field count 70843
field mean 4.6492666883108
field stddev 0.85927408778632
field sum 329368
field sqrsum 1583626
field min 3
field max 7
statistic Basic.rack[2].node[3].app 	throughput
field count 71215
field mean 35608
field stddev 20558.14404723
field sum 2535823720
field sqrsum 1.2039330275444e+014
field min 1
field max 71215
statistic Basic.rack[2].node[3].app 	"End-to-End Delay"
field count 71215
field mean 0.00041744193974649
field stddev 0.0002876155627018
field sum 29.728127739046
field sqrsum 0.018300782514255
field min 8.496e-007
field max 0.001246585073
statistic Basic.rack[2].node[3].app 	hops
field count 71215
field mean 4.6542161061574
field stddev 0.86073606045135
field sum 331450
field sqrsum 1595400
field min 3
field max 7
statistic Basic.rack[2].node[4].app 	throughput
field count 71193
field mean 35597
field stddev 20551.793194269
field sum 2534257221
field sqrsum 1.2028176097551e+014
field min 1
field max 71193
statistic Basic.rack[2].node[4].app 	"End-to-End Delay"
field count 71193
field mean 0.00041528361299236
field stddev 0.0002874082291651
field sum 29.565286259765
field sqrsum 0.018158686570845
field min 8.496e-007
field max 0.001247175477
statistic Basic.rack[2].node[4].app 	hops
field count 71193
field mean 4.655261050946
field stddev 0.85975879697333
field sum 331422
field sqrsum 1595480
field min 3
field max 7
statistic Basic.rack[2].node[5].app 	throughput
field count 71194
field mean 35597.5
field stddev 20552.081869404
field sum 2534328415
field sqrsum 1.2028682956114e+014
field min 1
field max 71194
statistic Basic.rack[2].node[5].app 	"End-to-End Delay"
field count 71194
field mean 0.00041518323939134
field stddev 0.00028789191196014
field sum 29.558555545227
field sqrsum 0.018172817482337
field min 8.496e-007
field max 0.001246921177
statistic Basic.rack[2].node[5].app 	hops
field count 71194
field mean 4.6540157878473
field stddev 0.85590189030209
field sum 331338
field sqrsum 1594206
field min 3
field max 7
statistic Basic.rack[2].node[6].app 	throughput
field count 71313
field mean 35657
field stddev 20586.434210421
field sum 2542807641
field sqrsum 1.2089100847097e+014
field min 1
field max 71313
statistic Basic.rack[2].node[6].app 	"End-to-End Delay"
field count 71313
field mean 0.00041638042756248
field stddev 0.00028605449675443
field sum 29.693337430763
field sqrsum 0.018198984046867
field min 8.496e-007
field max 0.001247014783
statistic Basic.rack[2].node[6].app 	hops
field count 71313
field mean 4.6506667788482
field stddev 0.86017164577191
field sum 331653
field sqrsum 1595171
field min 3
field max 7
statistic Basic.rack[2].node[7].app 	throughput
field count 70979
field mean 35490
field stddev 20490.016715464
field sum 2519044710
field sqrsum 1.1920035599563e+014
field min 1
field max 70979
statistic Basic.rack[2].node[7].app 	"End-to-End Delay"
field count 70979
field mean 0.00041454071901825
field stddev 0.00028784195396828
field sum 29.423685695196
field sqrsum 0.018078055381427
field min 8.496e-007
field max 0.001247043574
statistic Basic.rack[2].node[7].app 	hops
field count 70979
field mean 4.6541089618056
field stddev 0.85595797358368
field sum 330344
field sqrsum 1589460
field min 3
field max 7
statistic Basic.rack[2].node[8].app 	throughput
field count 70984
field mean 35492.5
field stddev 20491.460091137
field sum 2519399620
field sqrsum 1.1922554821726e+014
field min 1
field max 70984
statistic Basic.rack[2].node[8].app 	"End-to-End Delay"
field count 70984
field mean 0.00041672686333933
field stddev 0.00028781810370748
field sum 29.580939667279
field sqrsum 0.018207351453087
field min 8.496e-007
field max 0.001245538804
statistic Basic.rack[2].node[8].app 	hops
field count 70984
field mean 4.6510058604756
field stddev 0.8637133245191
field sum 330147
field sqrsum 1588469
field min 3
field max 7
statistic Basic.rack[2].node[9].app 	throughput
field count 71124
field mean 35562.5
field stddev 20531.874609981
field sum 2529347250
field sqrsum 1.1993237232175e+014
field min 1
field max 71124
statistic Basic.rack[2].node[9].app 	"End-to-End Delay"
field count 71124
field mean 0.00041689071800683
field stddev 0.00028846301238511
field sum 29.650935427518
field sqrsum 0.018279409277337
field min 8.496e-007
field max 0.00124648875
statistic Basic.rack[2].node[9].app 	hops
field count 71124
field mean 4.6539424104381
field stddev 0.85848567819249
field sum 331007
field sqrsum 1592905
field min 3
field max 7
statistic Basic.rack[2].eps.queue[0] 	dropsum
field count 0
field mean nan
field stddev nan
field sum 0
field sqrsum 0
field min nan
field max nan
statistic Basic.rack[2].eps.queue[1] 	dropsum
field count 2200079
field mean 1100040
field stddev 635108.24578327
field sum 2420174903160
field sqrsum 3.5497181272421e+018
field min 1
field max 2200079
statistic Basic.rack[2].eps.queue[2] 	dropsum
field count 0
field mean nan
field stddev nan
field sum 0
field sqrsum 0
field min nan
field max nan
statistic Basic.rack[2].eps.queue[3] 	dropsum
field count 0
field mean nan
field stddev nan
field sum 0
field sqrsum 0
field min nan
field max nan
statistic Basic.rack[3].node[0].app 	throughput
field count 72707
field mean 36354
field stddev 20988.847348056
field sum 2643190278
field sqrsum 1.2811983809179e+014
field min 1
field max 72707
statistic Basic.rack[3].node[0].app 	"End-to-End Delay"
field count 72707
field mean 0.00046257629778015
field stddev 0.00034374372922106
field sum 33.632534882702
field sqrsum 0.024148536354749
field min 8.496e-007
field max 0.0012497688
statistic Basic.rack[3].node[0].app 	hops
field count 72707
field mean 4.8841927187203
field stddev 1.0383594188274
field sum 355115
field sqrsum 1812841
field min 3
field max 7
statistic Basic.rack[3].node[1].app 	throughput
field count 71801
field mean 35901
field stddev 20727.307676107
field sum 2577727701
field sqrsum 1.233898103489e+014
field min 1
field max 71801
statistic Basic.rack[3].node[1].app 	"End-to-End Delay"
field count 71801
field mean 0.00046415840416281
field stddev 0.00034339323928998
field sum 33.327037577294
field sqrsum 0.023935602802877
field min 8.496e-007
field max 0.001249773487
statistic Basic.rack[3].node[1].app 	hops
field count 71801
field mean 4.8914778345705
field stddev 1.0359041593676
field sum 351213
field sqrsum 1794999
field min 3
field max 7
statistic Basic.rack[3].node[2].app 	throughput
field count 72562
field mean 36281.5
field stddev 20946.989453539
field sum 2632658203
field sqrsum 1.2735484057012e+014
field min 1
field max 72562
statistic Basic.rack[3].node[2].app 	"End-to-End Delay"
field count 72562
field mean 0.00046075608081896
field stddev 0.00034259420331215
field sum 33.433382736386
field sqrsum 0.023921176156588
field min 8.496e-007
field max 0.001249768319
statistic Basic.rack[3].node[2].app 	hops
field count 72562
field mean 4.8786554946115
field stddev 1.034036872967
field sum 354005
field sqrsum 1804653
field min 3
field max 7
statistic Basic.rack[3].node[3].app 	throughput
field count 71962
field mean 35981.5
field stddev 20773.784372778
field sum 2589300703
field sqrsum 1.2422170122642e+014
field min 1
field max 71962
statistic Basic.rack[3].node[3].app 	"End-to-End Delay"
field count 71962
field mean 0.000462751151351
field stddev 0.00034325389255974
field sum 33.300498353521
field sqrsum 0.023888521750032
field min 8.496e-007
field max 0.001249776252
statistic Basic.rack[3].node[3].app 	hops
field count 71962
field mean 4.8852727828576
field stddev 1.0374701436329
field sum 351554
field sqrsum 1794892
field min 3
field max 7
statistic Basic.rack[3].node[4].app 	throughput
field count 72548
field mean 36274.5
field stddev 20942.948001654
field sum 2631642426
field sqrsum 1.2728114036177e+014
field min 1
field max 72548
statistic Basic.rack[3].node[4].app 	"End-to-End Delay"
field count 72548
field mean 0.00046218985860127
field stddev 0.00034295847294898
field sum 33.530949861805
field sqrsum 0.024030680416703
field min 8.496e-007
field max 0.001249772946
statistic Basic.rack[3].node[4].app 	hops
field count 72548
field mean 4.8836494458841
field stddev 1.0365219642162
field sum 354299
field sqrsum 1808215
field min 3
field max 7
statistic Basic.rack[3].node[5].app 	throughput
field count 72589
field mean 36295
field stddev 20954.783682173
field sum 2634617755
field sqrsum 1.2749705701772e+014
field min 1
field max 72589
statistic Basic.rack[3].node[5].app 	"End-to-End Delay"
field count 72589
field mean 0.00046312474443293
field stddev 0.00034354612246701
field sum 33.617762073642
field sqrsum 0.024136339099333
field min 8.496e-007
field max 0.001249779818
statistic Basic.rack[3].node[5].app 	hops
field count 72589
field mean 4.8865806113874
field stddev 1.0355132451085
field sum 354712
field sqrsum 1811164
field min 3
field max 7
statistic Basic.rack[3].node[6].app 	throughput
field count 72176
field mean 36088.5
field stddev 20835.560851583
field sum 2604723576
field sqrsum 1.2533322078878e+014
field min 1
field max 72176
statistic Basic.rack[3].node[6].app 	"End-to-End Delay"
field count 72176
field mean 0.00046186243108034
field stddev 0.00034399930285458
field sum 33.335382825655
field sqrsum 0.023937227135154
field min 8.496e-007
field max 0.001249777792
statistic Basic.rack[3].node[6].app 	hops
field count 72176
field mean 4.8792950565285
field stddev 1.0393999130182
field sum 352168
field sqrsum 1796306
field min 3
field max 7
statistic Basic.rack[3].node[7].app 	throughput
field count 72569
field mean 36285
field stddev 20949.010179481
field sum 2633166165
field sqrsum 1.2739170134064e+014
field min 1
field max 72569
statistic Basic.rack[3].node[7].app 	"End-to-End Delay"
field count 72569
field mean 0.00046119888751599
field stddev 0.00034358257887537
field sum 33.468742068148
field sqrsum 0.02400232560634
field min 8.496e-007
field max 0.001249777284
statistic Basic.rack[3].node[7].app 	hops
field count 72569
field mean 4.8867147128939
field stddev 1.0337012244634
field sum 354624
field sqrsum 1810488
field min 3
field max 7
statistic Basic.rack[3].node[8].app 	throughput
field count 72181
field mean 36091
field stddev 20837.004227256
field sum 2605084471
field sqrsum 1.2535926982899e+014
field min 1
field max 72181
statistic Basic.rack[3].node[8].app 	"End-to-End Delay"
field count 72181
field mean 0.00046250156678234
field stddev 0.00034309313436982
field sum 33.383825591916
field sqrsum 0.023936588680566
field min 8.496e-007
field max 0.001249779517
statistic Basic.rack[3].node[8].app 	hops
field count 72181
field mean 4.8879067898755
field stddev 1.033050760689
field sum 352814
field sqrsum 1801552
field min 3
field max 7
statistic Basic.rack[3].node[9].app 	throughput
field count 72470
field mean 36235.5
field stddev 20920.431341155
field sum 2625986685
field sqrsum 1.268710453702e+014
field min 1
field max 72470
statistic Basic.rack[3].node[9].app 	"End-to-End Delay"
field count 72470
field mean 0.00046345725542644
field stddev 0.00034211277175025
field sum 33.586747300754
field sqrsum 0.024047876720214
field min 8.496e-007
field max 0.001249771123
statistic Basic.rack[3].node[9].app 	hops
field count 72470
field mean 4.8864357665241
field stddev 1.0360711139382
field sum 354120
field sqrsum 1808176
field min 3
field max 7
statistic Basic.rack[3].eps.queue[0] 	dropsum
field count 2161195
field mean 1080598
field stddev 623883.40184971
field sum 2335382994610
field sqrsum 3.3648128124892e+018
field min 1
field max 2161195
statistic Basic.rack[3].eps.queue[1] 	dropsum
field count 0
field mean nan
field stddev nan
field sum 0
field sqrsum 0
field min nan
field max nan
statistic Basic.rack[3].eps.queue[2] 	dropsum
field count 0
field mean nan
field stddev nan
field sum 0
field sqrsum 0
field min nan
field max nan
statistic Basic.rack[3].eps.queue[3] 	dropsum
field count 0
field mean nan
field stddev nan
field sum 0
field sqrsum 0
field min nan
field max nan
statistic Basic.rack[4].node[0].app 	throughput
field count 102911
field mean 51456
field stddev 29707.991113503
field sum 5295388416
field sqrsum 3.6330424331546e+014
field min 1
field max 102911
statistic Basic.rack[4].node[0].app 	"End-to-End Delay"
field count 102911
field mean 0.00032699308060208
field stddev 0.00035055747999819
field sum 33.651184917841
field sqrsum 0.023650370791601
field min 8.496e-007
field max 0.001313609448
statistic Basic.rack[4].node[0].app 	hops
field count 102911
field mean 5.3285848937431
field stddev 1.0488871430382
field sum 548370
field sqrsum 3035254
field min 4
field max 8
statistic Basic.rack[4].node[1].app 	throughput
field count 102877
field mean 51439
field stddev 29698.176158927
field sum 5291890003
field sqrsum 3.6294427585576e+014
field min 1
field max 102877
statistic Basic.rack[4].node[1].app 	"End-to-End Delay"
field count 102877
field mean 0.00032553256726593
field stddev 0.00035059910778196
field sum 33.489813922617
field sqrsum 0.023547515697308
field min 8.496e-007
field max 0.001296738589
statistic Basic.rack[4].node[1].app 	hops
field count 102877
field mean 5.326224520544
field stddev 1.0479511024577
field sum 547946
field sqrsum 3031462
field min 4
field max 8
statistic Basic.rack[4].node[2].app 	throughput
field count 102417
field mean 51209
field stddev 29565.385597012
field sum 5244672153
field sqrsum 3.5809747348658e+014
field min 1
field max 102417
statistic Basic.rack[4].node[2].app 	"End-to-End Delay"
field count 102417
field mean 0.00032475425106233
field stddev 0.00035020470706823
field sum 33.26035613105
field sqrsum 0.023362082032516
field min 8.496e-007
field max 0.001305864177
statistic Basic.rack[4].node[2].app 	hops
field count 102417
field mean 5.3221730767353
field stddev 1.047905311425
field sum 545081
field sqrsum 3013479
field min 4
field max 8
statistic Basic.rack[4].node[3].app 	throughput
field count 102963
field mean 51482
field stddev 29723.002220503
field sum 5300741166
field sqrsum 3.6385524203029e+014
field min 1
field max 102963
statistic Basic.rack[4].node[3].app 	"End-to-End Delay"
field count 102963
field mean 0.00032586355563798
field stddev 0.00035072206595494
field sum 33.551889279153
field sqrsum 0.023598278369523
field min 8.496e-007
field max 0.001298057779
statistic Basic.rack[4].node[3].app 	hops
field count 102963
field mean 5.3277973641017
field stddev 1.0477309059687
field sum 548566
field sqrsum 3035674
field min 4
field max 8
statistic Basic.rack[4].node[4].app 	throughput
field count 102506
field mean 51253.5
field stddev 29591.077683991
field sum 5253791271
field sqrsum 3.5903183661384e+014
field min 1
field max 102506
statistic Basic.rack[4].node[4].app 	"End-to-End Delay"
field count 102506
field mean 0.0003244935639016
field stddev 0.00035034645141234
field sum 33.262537261297
field sqrsum 0.023375213165273
field min 8.496e-007
field max 0.001286333803
statistic Basic.rack[4].node[4].app 	hops
field count 102506
field mean 5.3225469728601
field stddev 1.0474831313935
field sum 545593
field sqrsum 3016415
field min 4
field max 8
statistic Basic.rack[4].node[5].app 	throughput
field count 102771
field mean 51386
field stddev 29667.57659466
field sum 5280990606
field sqrsum 3.6182355070969e+014
field min 1
field max 102771
statistic Basic.rack[4].node[5].app 	"End-to-End Delay"
field count 102771
field mean 0.00032423058507252
field stddev 0.00035010252355166
field sum 33.321501458488
field sqrsum 0.023400551435387
field min 8.496e-007
field max 0.001302384344
statistic Basic.rack[4].node[5].app 	hops
field count 102771
field mean 5.3193507896196
field stddev 1.047109232746
field sum 546675
field sqrsum 3020637
field min 4
field max 8
statistic Basic.rack[4].node[6].app 	throughput
field count 102788
field mean 51394.5
field stddev 29672.484071948
field sum 5282737866
field sqrsum 3.6200313409289e+014
field min 1
field max 102788
statistic Basic.rack[4].node[6].app 	"End-to-End Delay"
field count 102788
field mean 0.00032665575920894
field stddev 0.00035128339247741
field sum 33.576292177569
field sqrsum 0.02365180725657
field min 8.496e-007
field max 0.001291115995
statistic Basic.rack[4].node[6].app 	hops
field count 102788
field mean 5.3275576915593
field stddev 1.0476893678
field sum 547609
field sqrsum 3030243
field min 4
field max 8
statistic Basic.rack[4].node[7].app 	throughput
field count 102858
field mean 51429.5
field stddev 29692.69133137
field sum 5289935511
field sqrsum 3.6274322117213e+014
field min 1
field max 102858
statistic Basic.rack[4].node[7].app 	"End-to-End Delay"
field count 102858
field mean 0.00032681281155271
field stddev 0.00035106585531756
field sum 33.615312170688
field sqrsum 0.023662755508447
field min 8.496e-007
field max 0.001293118684
statistic Basic.rack[4].node[7].app 	hops
field count 102858
field mean 5.3271597736686
field stddev 1.0475893774104
field sum 547941
field sqrsum 3031849
field min 4
field max 8
statistic Basic.rack[4].node[8].app 	throughput
field count 103610
field mean 51805.5
field stddev 29909.775032588
field sum 5367567855
field sqrsum 3.7075759282698e+014
field min 1
field max 103610
statistic Basic.rack[4].node[8].app 	"End-to-End Delay"
field count 103610
field mean 0.0003246677851933
field stddev 0.00035098740582843
field sum 33.638829223878
field sqrsum 0.023685260587641
field min 8.496e-007
field max 0.001310692329
statistic Basic.rack[4].node[8].app 	hops
field count 103610
field mean 5.3240517324583
field stddev 1.047082247084
field sum 551625
field sqrsum 3050475
field min 4
field max 8
statistic Basic.rack[4].node[9].app 	throughput
field count 102810
field mean 51405.5
field stddev 29678.834924909
field sum 5284999455
field sqrsum 3.6223562431218e+014
field min 1
field max 102810
statistic Basic.rack[4].node[9].app 	"End-to-End Delay"
field count 102810
field mean 0.00032652122803692
field stddev 0.00035190632980579
field sum 33.569647454476
field sqrsum 0.023692870131805
field min 8.496e-007
field max 0.001294533601
statistic Basic.rack[4].node[9].app 	hops
field count 102810
field mean 5.3274000583601
field stddev 1.0502630139554
field sum 547710
field sqrsum 3031274
field min 4
field max 8
statistic Basic.rack[4].eps.queue[0] 	dropsum
field count 777519
field mean 388760
field stddev 224450.54631189
field sum 302268286440
field sqrsum 1.566796579589e+017
field min 1
field max 777519
statistic Basic.rack[4].eps.queue[1] 	dropsum
field count 0
field mean nan
field stddev nan
field sum 0
field sqrsum 0
field min nan
field max nan
statistic Basic.rack[4].eps.queue[2] 	dropsum
field count 0
field mean nan
field stddev nan
field sum 0
field sqrsum 0
field min nan
field max nan
statistic Basic.rack[4].eps.queue[3] 	dropsum
field count 0
field mean nan
field stddev nan
field sum 0
field sqrsum 0
field min nan
field max nan
statistic Basic.rack[5].node[0].app 	throughput
field count 82483
field mean 41242
field stddev 23810.935463914
field sum 3401763886
field sqrsum 1.8705959432725e+014
field min 1
field max 82483
statistic Basic.rack[5].node[0].app 	"End-to-End Delay"
field count 82483
field mean 0.00041826058511109
field stddev 0.00036610558794275
field sum 34.499387841718
field sqrsum 0.025485068920864
field min 9.4416e-006
field max 0.001636072039
statistic Basic.rack[5].node[0].app 	hops
field count 82483
field mean 5.8446588994096
field stddev 1.1176658559777
field sum 482085
field sqrsum 2920657
field min 4
field max 9
statistic Basic.rack[5].node[1].app 	throughput
field count 82454
field mean 41227.5
field stddev 23802.56388501
field sum 3399372285
field sqrsum 1.8686236138236e+014
field min 1
field max 82454
statistic Basic.rack[5].node[1].app 	"End-to-End Delay"
field count 82454
field mean 0.0004157086749177
field stddev 0.00036556173554229
field sum 34.276843081664
field sqrsum 0.02526781921051
field min 9.4416e-006
field max 0.001623360524
statistic Basic.rack[5].node[1].app 	hops
field count 82454
field mean 5.8395347709026
field stddev 1.1128129093464
field sum 481493
field sqrsum 2913801
field min 4
field max 9
statistic Basic.rack[5].node[2].app 	throughput
field count 81878
field mean 40939.5
field stddev 23636.287007481
field sum 3352044381
field sqrsum 1.8297357723314e+014
field min 1
field max 81878
statistic Basic.rack[5].node[2].app 	"End-to-End Delay"
field count 81878
field mean 0.00041941808285036
field stddev 0.00036694917945157
field sum 34.341113787621
field sqrsum 0.025428161373228
field min 9.4416e-006
field max 0.001637485812
statistic Basic.rack[5].node[2].app 	hops
field count 81878
field mean 5.8482009819488
field stddev 1.1181325192268
field sum 478839
field sqrsum 2902711
field min 4
field max 9
statistic Basic.rack[5].node[3].app 	throughput
field count 82061
field mean 41031
field stddev 23689.114557113
field sum 3367044891
field sqrsum 1.8420316954853e+014
field min 1
field max 82061
statistic Basic.rack[5].node[3].app 	"End-to-End Delay"
field count 82061
field mean 0.00041737484873817
field stddev 0.00036483331334751
field sum 34.250197462303
field sqrsum 0.025217631601179
field min 9.4416e-006
field max 0.001579903381
statistic Basic.rack[5].node[3].app 	hops
field count 82061
field mean 5.8384738182572
field stddev 1.1162503083655
field sum 479111
field sqrsum 2899525
field min 4
field max 9
statistic Basic.rack[5].node[4].app 	throughput
field count 81933
field mean 40967
field stddev 23652.164139884
field sum 3356549211
field sqrsum 1.8334254985298e+014
field min 1
field max 81933
statistic Basic.rack[5].node[4].app 	"End-to-End Delay"
field count 81933
field mean 0.00041894250896282
field stddev 0.00036605676314588
field sum 34.325216586851
field sqrsum 0.025358979939203
field min 9.4416e-006
field max 0.001601629852
statistic Basic.rack[5].node[4].app 	hops
field count 81933
field mean 5.8459350933079
field stddev 1.1194263040692
field sum 478975
field sqrsum 2902727
field min 4
field max 9
statistic Basic.rack[5].node[5].app 	throughput
field count 82538
field mean 41269.5
field stddev 23826.812596317
field sum 3406301991
field sqrsum 1.8743403792277e+014
field min 1
field max 82538
statistic Basic.rack[5].node[5].app 	"End-to-End Delay"
field count 82538
field mean 0.00041684681860226
field stddev 0.0003645944600753
field sum 34.405702713793
field sqrsum 0.025313478521674
field min 9.4416e-006
field max 0.00157785933
statistic Basic.rack[5].node[5].app 	hops
field count 82538
field mean 5.8450289563595
field stddev 1.1143951529631
field sum 482437
field sqrsum 2922359
field min 4
field max 9
statistic Basic.rack[5].node[6].app 	throughput
field count 82182
field mean 41091.5
field stddev 23724.044248399
field sum 3376981653
field sqrsum 1.8501919646512e+014
field min 1
field max 82182
statistic Basic.rack[5].node[6].app 	"End-to-End Delay"
field count 82182
field mean 0.0004173081386676
field stddev 0.00036659843655391
field sum 34.295217451981
field sqrsum 0.025356340671032
field min 9.4416e-006
field max 0.001647821518
statistic Basic.rack[5].node[6].app 	hops
field count 82182
field mean 5.8408410600862
field stddev 1.1203821196627
field sum 480012
field sqrsum 2906832
field min 4
field max 9
statistic Basic.rack[5].node[7].app 	throughput
field count 81877
field mean 40939
field stddev 23635.998332346
field sum 3351962503
field sqrsum 1.8296687322626e+014
field min 1
field max 81877
statistic Basic.rack[5].node[7].app 	"End-to-End Delay"
field count 81877
field mean 0.00041661359554751
field stddev 0.0003661548929663
field sum 34.111071362643
field sqrsum 0.025188202744808
field min 9.4416e-006
field max 0.001580654183
statistic Basic.rack[5].node[7].app 	hops
field count 81877
field mean 5.8443152533679
field stddev 1.11868644387
field sum 478515
field sqrsum 2899057
field min 4
field max 9
statistic Basic.rack[5].node[8].app 	throughput
field count 82437
field mean 41219
field stddev 23797.656407722
field sum 3397970703
field sqrsum 1.8674680655238e+014
field min 1
field max 82437
statistic Basic.rack[5].node[8].app 	"End-to-End Delay"
field count 82437
field mean 0.00041701055687356
field stddev 0.00036640228061087
field sum 34.377099276985
field sqrsum 0.025402698349834
field min 9.4416e-006
field max 0.001631953081
statistic Basic.rack[5].node[8].app 	hops
field count 82437
field mean 5.8444387835559
field stddev 1.1123127219647
field sum 481798
field sqrsum 2917832
field min 4
field max 9
statistic Basic.rack[5].node[9].app 	throughput
field count 81725
field mean 40863
field stddev 23592.119711887
field sum 3339528675
field sqrsum 1.8194976715248e+014
field min 1
field max 81725
statistic Basic.rack[5].node[9].app 	"End-to-End Delay"
field count 81725
field mean 0.00041716912764784
field stddev 0.00036601833757636
field sum 34.09314695702
field sqrsum 0.025171125536217
field min 9.4416e-006
field max 0.001556357105
statistic Basic.rack[5].node[9].app 	hops
field count 81725
field mean 5.8428754970939
field stddev 1.1121982853425
field sum 477509
field sqrsum 2891117
field min 4
field max 9
statistic Basic.rack[5].eps.queue[0] 	dropsum
field count 48
field mean 24.5
field stddev 14
field sum 1176
field sqrsum 38024
field min 1
field max 48
statistic Basic.rack[5].eps.queue[1] 	dropsum
field count 109849
field mean 54925
field stddev 31710.819197344
field sum 6033456325
field sqrsum 4.4184810704872e+014
field min 1
field max 109849
statistic Basic.rack[5].eps.queue[2] 	dropsum
field count 0
field mean nan
field stddev nan
field sum 0
field sqrsum 0
field min nan
field max nan
statistic Basic.rack[5].eps.queue[3] 	dropsum
field count 0
field mean nan
field stddev nan
field sum 0
field sqrsum 0
field min nan
field max nan
statistic Basic.rack[6].node[0].app 	throughput
field count 51464
field mean 25732.5
field stddev 14856.521463654
field sum 1324297380
field sqrsum 45436201675340
field min 1
field max 51464
statistic Basic.rack[6].node[0].app 	"End-to-End Delay"
field count 51464
field mean 0.00066347843610724
field stddev 0.00026225890569451
field sum 34.145254235823
field sqrsum 0.026194251311953
field min 4.1080849e-005
field max 0.001605969767
statistic Basic.rack[6].node[0].app 	hops
field count 51464
field mean 5.4915280584486
field stddev 1.4910774678425
field sum 282616
field sqrsum 1666412
field min 3
field max 8
statistic Basic.rack[6].node[1].app 	throughput
field count 51478
field mean 25739.5
field stddev 14860.562915538
field sum 1325017981
field sqrsum 45473292089939
field min 1
field max 51478
statistic Basic.rack[6].node[1].app 	"End-to-End Delay"
field count 51478
field mean 0.00066459362544826
field stddev 0.0002624628383363
field sum 34.211950650826
field sqrsum 0.026283127109273
field min 0.000148547268
field max 0.001640091528
statistic Basic.rack[6].node[1].app 	hops
field count 51478
field mean 5.4884805159486
field stddev 1.4999185306337
field sum 282536
field sqrsum 1666504
field min 3
field max 8
statistic Basic.rack[6].node[2].app 	throughput
field count 51737
field mean 25869
field stddev 14935.329775402
field sum 1338384453
field sqrsum 46163110424725
field min 1
field max 51737
statistic Basic.rack[6].node[2].app 	"End-to-End Delay"
field count 51737
field mean 0.00066499142642865
field stddev 0.0002626115967955
field sum 34.404661429139
field sqrsum 0.026446770399072
field min 0.000160233878
field max 0.001580649639
statistic Basic.rack[6].node[2].app 	hops
field count 51737
field mean 5.5085335446586
field stddev 1.4967910784577
field sum 284995
field sqrsum 1685813
field min 3
field max 8
statistic Basic.rack[6].node[3].app 	throughput
field count 51656
field mean 25828.5
field stddev 14911.947089498
field sum 1334196996
field sqrsum 45946631415916
field min 1
field max 51656
statistic Basic.rack[6].node[3].app 	"End-to-End Delay"
field count 51656
field mean 0.00066466188730712
field stddev 0.00026321958536357
field sum 34.333774450737
field sqrsum 0.026399244761199
field min 7.7539098e-005
field max 0.001584312671
statistic Basic.rack[6].node[3].app 	hops
field count 51656
field mean 5.5016261421713
field stddev 1.4958391838965
field sum 284192
field sqrsum 1679098
field min 3
field max 8
statistic Basic.rack[6].node[4].app 	throughput
field count 51165
field mean 25583
field stddev 14770.207598406
field sum 1308954195
field sqrsum 44648863909515
field min 1
field max 51165
statistic Basic.rack[6].node[4].app 	"End-to-End Delay"
field count 51165
field mean 0.00066457909142861
field stddev 0.00026282739539204
field sum 34.003189212945
field sqrsum 0.026132127652333
field min 0.00020551527
field max 0.00161469191
statistic Basic.rack[6].node[4].app 	hops
field count 51165
field mean 5.5050913710544
field stddev 1.488219734129
field sum 281668
field sqrsum 1663926
field min 3
field max 8
statistic Basic.rack[6].node[5].app 	throughput
field count 51295
field mean 25648
field stddev 14807.735365905
field sum 1315614160
field sqrsum 44990057429520
field min 1
field max 51295
statistic Basic.rack[6].node[5].app 	"End-to-End Delay"
field count 51295
field mean 0.00066189133102742
field stddev 0.00026103196336424
field sum 33.951715825052
field sqrsum 0.025967400838549
field min 2.4961806e-005
field max 0.001614991548
statistic Basic.rack[6].node[5].app 	hops
field count 51295
field mean 5.4788575884589
field stddev 1.4940050008941
field sum 281038
field sqrsum 1654258
field min 3
field max 8
statistic Basic.rack[6].node[6].app 	throughput
field count 52244
field mean 26122.5
field stddev 15081.688068648
field sum 1364743890
field sqrsum 47533574774070
field min 1
field max 52244
statistic Basic.rack[6].node[6].app 	"End-to-End Delay"
field count 52244
field mean 0.00066445821828568
field stddev 0.00026212556063854
field sum 34.713955156117
field sqrsum 0.026655579372485
field min 0.000224712604
field max 0.001565678235
statistic Basic.rack[6].node[6].app 	hops
field count 52244
field mean 5.4952339024577
field stddev 1.48994301778
field sum 287093
field sqrsum 1693619
field min 3
field max 8
statistic Basic.rack[6].node[7].app 	throughput
field count 51793
field mean 25897
field stddev 14951.49558294
field sum 1341283321
field sqrsum 46313171790809
field min 1
field max 51793
statistic Basic.rack[6].node[7].app 	"End-to-End Delay"
field count 51793
field mean 0.00066465163720109
field stddev 0.00026155078005419
field sum 34.424302245556
field sqrsum 0.026423197962862
field min 7.9095282e-005
field max 0.001626966472
statistic Basic.rack[6].node[7].app 	hops
field count 51793
field mean 5.4951055161894
field stddev 1.4841285832218
field sum 284608
field sqrsum 1678030
field min 3
field max 8
statistic Basic.rack[6].node[8].app 	throughput
field count 51903
field mean 25952
field stddev 14983.249847747
field sum 1346986656
field sqrsum 46608881266464
field min 1
field max 51903
statistic Basic.rack[6].node[8].app 	"End-to-End Delay"
field count 51903
field mean 0.00066531258392817
field stddev 0.00026339364934993
field sum 34.531719043624
field sqrsum 0.026575151510302
field min 9.8912e-006
field max 0.001535656187
statistic Basic.rack[6].node[8].app 	hops
field count 51903
field mean 5.5015895034969
field stddev 1.4920545275394
field sum 285549
field sqrsum 1686519
field min 3
field max 8
statistic Basic.rack[6].node[9].app 	throughput
field count 51697
field mean 25849
field stddev 14923.782770017
field sum 1336315753
field sqrsum 46056122427145
field min 1
field max 51697
statistic Basic.rack[6].node[9].app 	"End-to-End Delay"
field count 51697
field mean 0.00066229747242484
field stddev 0.00026194550116428
field sum 34.238792431947
field sqrsum 0.026223409761272
field min 0.00010045958
field max 0.001587531768
statistic Basic.rack[6].node[9].app 	hops
field count 51697
field mean 5.497920575662
field stddev 1.4891282124578
field sum 284226
field sqrsum 1677288
field min 3
field max 8
statistic Basic.rack[6].eps.queue[0] 	dropsum
field count 0
field mean nan
field stddev nan
field sum 0
field sqrsum 0
field min nan
field max nan
statistic Basic.rack[6].eps.queue[1] 	dropsum
field count 1857893
field mean 928947
field stddev 536327.65617689
field sum 1725884128671
field sqrsum 2.1376726029438e+018
field min 1
field max 1857893
statistic Basic.rack[6].eps.queue[2] 	dropsum
field count 0
field mean nan
field stddev nan
field sum 0
field sqrsum 0
field min nan
field max nan
statistic Basic.rack[6].eps.queue[3] 	dropsum
field count 0
field mean nan
field stddev nan
field sum 0
field sqrsum 0
field min nan
field max nan
statistic Basic.rack[7].node[0].app 	throughput
field count 51748
field mean 25874.5
field stddev 14938.505201882
field sum 1338953626
field sqrsum 46192561143374
field min 1
field max 51748
statistic Basic.rack[7].node[0].app 	"End-to-End Delay"
field count 51748
field mean 0.00062656142030939
field stddev 0.00020237359082803
field sum 32.42330037817
field sqrsum 0.022434491157048
field min 4.0041026e-005
field max 0.00124347555
statistic Basic.rack[7].node[0].app 	hops
field count 51748
field mean 5.2077568215197
field stddev 1.2904884480886
field sum 269491
field sqrsum 1489621
field min 3
field max 8
statistic Basic.rack[7].node[1].app 	throughput
field count 51416
field mean 25708.5
field stddev 14842.665057192
field sum 1321828236
field sqrsum 45309187664196
field min 1
field max 51416
statistic Basic.rack[7].node[1].app 	"End-to-End Delay"
field count 51416
field mean 0.00062621702949837
field stddev 0.00020261639218939
field sum 32.197574788688
field sqrsum 0.022273430324789
field min 7.360171e-005
field max 0.001246980986
statistic Basic.rack[7].node[1].app 	hops
field count 51416
field mean 5.1979733934962
field stddev 1.2886734849918
field sum 267259
field sqrsum 1474589
field min 3
field max 8
statistic Basic.rack[7].node[2].app 	throughput
field count 51240
field mean 25620.5
field stddev 14791.858233501
field sum 1312794420
field sqrsum 44845494985340
field min 1
field max 51240
statistic Basic.rack[7].node[2].app 	"End-to-End Delay"
field count 51240
field mean 0.000625116925188
field stddev 0.000202555906124
field sum 32.030991246633
field sqrsum 0.022125394315141
field min 2.9774215e-005
field max 0.001354762564
statistic Basic.rack[7].node[2].app 	hops
field count 51240
field mean 5.204293520687
field stddev 1.2879456303391
field sum 266668
field sqrsum 1472814
field min 3
field max 8
statistic Basic.rack[7].node[3].app 	throughput
field count 51151
field mean 25576
field stddev 14766.166146521
field sum 1308237976
field sqrsum 44612223219576
field min 1
field max 51151
statistic Basic.rack[7].node[3].app 	"End-to-End Delay"
field count 51151
field mean 0.00062475193770724
field stddev 0.00020256852163379
field sum 31.956686365663
field sqrsum 0.022063891134346
field min 1.1519836e-005
field max 0.001194754219
statistic Basic.rack[7].node[3].app 	hops
field count 51151
field mean 5.2019315360404
field stddev 1.2842625839144
field sum 266084
field sqrsum 1468514
field min 3
field max 8
statistic Basic.rack[7].node[4].app 	throughput
field count 51491
field mean 25746
field stddev 14864.315692288
field sum 1325687286
field sqrsum 45507751258046
field min 1
field max 51491
statistic Basic.rack[7].node[4].app 	"End-to-End Delay"
field count 51491
field mean 0.00062687678173669
field stddev 0.00020280601213145
field sum 32.278512368404
field sqrsum 0.022352447995635
field min 0.000126143798
field max 0.001190728432
statistic Basic.rack[7].node[4].app 	hops
field count 51491
field mean 5.2046765454157
field stddev 1.2932433726167
field sum 267994
field sqrsum 1480938
field min 3
field max 8
statistic Basic.rack[7].node[5].app 	throughput
field count 51341
field mean 25671
field stddev 14821.014422097
field sum 1317974811
field sqrsum 45111202505971
field min 1
field max 51341
statistic Basic.rack[7].node[5].app 	"End-to-End Delay"
field count 51341
field mean 0.00062553814201262
field stddev 0.00020275181356613
field sum 32.11575374907
field sqrsum 0.022200128943938
field min 9.4416e-006
field max 0.001356422667
statistic Basic.rack[7].node[5].app 	hops
field count 51341
field mean 5.2001324477513
field stddev 1.2881848925828
field sum 266980
field sqrsum 1473526
field min 3
field max 8
statistic Basic.rack[7].node[6].app 	throughput
field count 51122
field mean 25561.5
field stddev 14757.794567617
field sum 1306755003
field sqrsum 44536388427245
field min 1
field max 51122
statistic Basic.rack[7].node[6].app 	"End-to-End Delay"
field count 51122
field mean 0.00062484386064254
field stddev 0.00020280864899374
field sum 31.943267843768
field sqrsum 0.0220622304476
field min 0.000109669336
field max 0.001284916842
statistic Basic.rack[7].node[6].app 	hops
field count 51122
field mean 5.2006572512812
field stddev 1.2844776316695
field sum 265868
field sqrsum 1467032
field min 3
field max 8
statistic Basic.rack[7].node[7].app 	throughput
field count 51272
field mean 25636.5
field stddev 14801.095837809
field sum 1314434628
field sqrsum 44929566309420
field min 1
field max 51272
statistic Basic.rack[7].node[7].app 	"End-to-End Delay"
field count 51272
field mean 0.00062654601777161
field stddev 0.00020242952770268
field sum 32.124267423186
field sqrsum 0.022228300186219
field min 2.8656248e-005
field max 0.001403837565
statistic Basic.rack[7].node[7].app 	hops
field count 51272
field mean 5.1901427679825
field stddev 1.2909916650153
field sum 266109
field sqrsum 1466595
field min 3
field max 8
statistic Basic.rack[7].node[8].app 	throughput
field count 51192
field mean 25596.5
field stddev 14778.00182704
field sum 1310336028
field sqrsum 44719584742260
field min 1
field max 51192
statistic Basic.rack[7].node[8].app 	"End-to-End Delay"
field count 51192
field mean 0.00062658883494143
field stddev 0.00020257481436264
field sum 32.076335638322
field sqrsum 0.022199376085007
field min 5.0338267e-005
field max 0.00125954775
statistic Basic.rack[7].node[8].app 	hops
field count 51192
field mean 5.2094272542585
field stddev 1.2878083403535
field sum 266681
field sqrsum 1474153
field min 3
field max 8
statistic Basic.rack[7].node[9].app 	throughput
field count 50930
field mean 25465.5
field stddev 14702.368941773
field sum 1296957915
field sqrsum 44036476726605
field min 1
field max 50930
statistic Basic.rack[7].node[9].app 	"End-to-End Delay"
field count 50930
field mean 0.00062665448375756
field stddev 0.00020283262826767
field sum 31.915512857773
field sqrsum 0.022095273047003
field min 0.000143854503
field max 0.00133040161
statistic Basic.rack[7].node[9].app 	hops
field count 50930
field mean 5.2039269585706
field stddev 1.2842569839676
field sum 265036
field sqrsum 1463226
field min 3
field max 8
statistic Basic.rack[7].eps.queue[0] 	dropsum
field count 1973863
field mean 986932
field stddev 569805.31153589
field sum 1948068558316
field sqrsum 2.5634809485087e+018
field min 1
field max 1973863
statistic Basic.rack[7].eps.queue[1] 	dropsum
field count 0
field mean nan
field stddev nan
field sum 0
field sqrsum 0
field min nan
field max nan
statistic Basic.rack[7].eps.queue[2] 	dropsum
field count 0
field mean nan
field stddev nan
field sum 0
field sqrsum 0
field min nan
field max nan
statistic Basic.rack[7].eps.queue[3] 	dropsum
field count 0
field mean nan
field stddev nan
field sum 0
field sqrsum 0
field min nan
field max nan
statistic Basic.rack[8].node[0].app 	throughput
field count 75919
field mean 37960
field stddev 21916.071880396
field sum 2881885240
field sqrsum 1.4586085765212e+014
field min 1
field max 75919
statistic Basic.rack[8].node[0].app 	"End-to-End Delay"
field count 75919
field mean 0.00035489682283915
field stddev 0.0003093764512467
field sum 26.943411893125
field sqrsum 0.016828530679189
field min 9.4416e-006
field max 0.001236472758
statistic Basic.rack[8].node[0].app 	hops
field count 75919
field mean 5.5499282129638
field stddev 0.7962782668963
field sum 421345
field sqrsum 2386571
field min 4
field max 8
statistic Basic.rack[8].node[1].app 	throughput
field count 75889
field mean 37945
field stddev 21907.411626358
field sum 2879608105
field sqrsum 1.4568801285626e+014
field min 1
field max 75889
statistic Basic.rack[8].node[1].app 	"End-to-End Delay"
field count 75889
field mean 0.00035254086030757
field stddev 0.00030958460753034
field sum 26.753973347881
field sqrsum 0.016705174226933
field min 9.4416e-006
field max 0.000940112492
statistic Basic.rack[8].node[1].app 	hops
field count 75889
field mean 5.5484721105826
field stddev 0.79185136616054
field sum 421068
field sqrsum 2383868
field min 4
field max 8
statistic Basic.rack[8].node[2].app 	throughput
field count 75599
field mean 37800
field stddev 21823.695837323
field sum 2857642200
field sqrsum 1.440242143326e+014
field min 1
field max 75599
statistic Basic.rack[8].node[2].app 	"End-to-End Delay"
field count 75599
field mean 0.00035192529012701
field stddev 0.00030972817707044
field sum 26.605200008312
field sqrsum 0.016615275570281
field min 9.4416e-006
field max 0.001296563206
statistic Basic.rack[8].node[2].app 	hops
field count 75599
field mean 5.5460257410812
field stddev 0.79151298775327
field sum 419274
field sqrsum 2372666
field min 4
field max 9
statistic Basic.rack[8].node[3].app 	throughput
field count 75824
field mean 37912.5
field stddev 21888.647742608
field sum 2874677400
field sqrsum 1.453139843442e+014
field min 1
field max 75824
statistic Basic.rack[8].node[3].app 	"End-to-End Delay"
field count 75824
field mean 0.00035292999088299
field stddev 0.00030983113550149
field sum 26.760563628712
field sqrsum 0.016723259575635
field min 9.4416e-006
field max 0.000931077812
statistic Basic.rack[8].node[3].app 	hops
field count 75824
field mean 5.5504325807132
field stddev 0.79479355266688
field sum 420856
field sqrsum 2383830
field min 4
field max 8
statistic Basic.rack[8].node[4].app 	throughput
field count 76316
field mean 38158.5
field stddev 22030.675908832
field sum 2912104086
field sqrsum 1.4816106098615e+014
field min 1
field max 76316
statistic Basic.rack[8].node[4].app 	"End-to-End Delay"
field count 76316
field mean 0.00035064460285438
field stddev 0.00030864574631876
field sum 26.759793511435
field sqrsum 0.01665311171102
field min 9.4416e-006
field max 0.000941477267
statistic Basic.rack[8].node[4].app 	hops
field count 76316
field mean 5.5541564023272
field stddev 0.79106896122337
field sum 423871
field sqrsum 2402003
field min 4
field max 8
statistic Basic.rack[8].node[5].app 	throughput
field count 75911
field mean 37956
field stddev 21913.762479319
field sum 2881277916
field sqrsum 1.4581475234696e+014
field min 1
field max 75911
statistic Basic.rack[8].node[5].app 	"End-to-End Delay"
field count 75911
field mean 0.00035104756237496
field stddev 0.00030962236763438
field sum 26.648371507445
field sqrsum 0.016632034719006
field min 9.4416e-006
field max 0.000939878554
statistic Basic.rack[8].node[5].app 	hops
field count 75911
field mean 5.554162110893
field stddev 0.79387278197089
field sum 421622
field sqrsum 2389598
field min 4
field max 8
statistic Basic.rack[8].node[6].app 	throughput
field count 75573
field mean 37787
field stddev 21816.190283824
field sum 2855676951
field sqrsum 1.438756680376e+014
field min 1
field max 75573
statistic Basic.rack[8].node[6].app 	"End-to-End Delay"
field count 75573
field mean 0.00035154910492242
field stddev 0.00030950457953187
field sum 26.567620506302
field sqrsum 0.016579098209727
field min 9.4416e-006
field max 0.001288421012
statistic Basic.rack[8].node[6].app 	hops
field count 75573
field mean 5.5478808569198
field stddev 0.79141834637834
field sum 419270
field sqrsum 2373394
field min 4
field max 9
statistic Basic.rack[8].node[7].app 	throughput
field count 75833
field mean 37917
field stddev 21891.24581882
field sum 2875359861
field sqrsum 1.4536573467943e+014
field min 1
field max 75833
statistic Basic.rack[8].node[7].app 	"End-to-End Delay"
field count 75833
field mean 0.00035280160667498
field stddev 0.00031000026042013
field sum 26.754004238984
field sqrsum 0.016726323124379
field min 9.4416e-006
field max 0.000941160404
statistic Basic.rack[8].node[7].app 	hops
field count 75833
field mean 5.551540885894
field stddev 0.7912513712847
field sum 420990
field sqrsum 2384620
field min 4
field max 8
statistic Basic.rack[8].node[8].app 	throughput
field count 75697
field mean 37849
field stddev 21851.986000514
field sum 2865055753
field sqrsum 1.4458503857514e+014
field min 1
field max 75697
statistic Basic.rack[8].node[8].app 	"End-to-End Delay"
field count 75697
field mean 0.00035242179709849
field stddev 0.00030905077769263
field sum 26.677272774964
field sqrsum 0.016631557771173
field min 9.4416e-006
field max 0.001293664796
statistic Basic.rack[8].node[8].app 	hops
field count 75697
field mean 5.5466795249481
field stddev 0.79403181529957
field sum 419867
field sqrsum 2376593
field min 4
field max 9
statistic Basic.rack[8].node[9].app 	throughput
field count 76051
field mean 38026
field stddev 21954.176998163
field sum 2891915326
field sqrsum 1.4662299894353e+014
field min 1
field max 76051
statistic Basic.rack[8].node[9].app 	"End-to-End Delay"
field count 76051
field mean 0.00035266209012907
field stddev 0.00030904700907024
field sum 26.820304616406
field sqrsum 0.016722044276571
field min 9.4416e-006
field max 0.000927468489
statistic Basic.rack[8].node[9].app 	hops
field count 76051
field mean 5.5475930625501
field stddev 0.79613206056406
field sum 421900
field sqrsum 2388732
field min 4
field max 8
statistic Basic.rack[8].eps.queue[0] 	dropsum
field count 112944
field mean 56472.5
field stddev 32604.268738924
field sum 6378230040
field sqrsum 4.8025733516852e+014
field min 1
field max 112944
statistic Basic.rack[8].eps.queue[1] 	dropsum
field count 35
field mean 18
field stddev 10.24695076596
field sum 630
field sqrsum 14910
field min 1
field max 35
statistic Basic.rack[8].eps.queue[2] 	dropsum
field count 0
field mean nan
field stddev nan
field sum 0
field sqrsum 0
field min nan
field max nan
statistic Basic.rack[8].eps.queue[3] 	dropsum
field count 0
field mean nan
field stddev nan
field sum 0
field sqrsum 0
field min nan
field max nan
statistic Basic.rack[9].node[0].app 	throughput
field count 95922
field mean 47961.5
field stddev 27690.440597795
field sum 4600563003
field sqrsum 2.9419833643684e+014
field min 1
field max 95922
statistic Basic.rack[9].node[0].app 	"End-to-End Delay"
field count 95922
field mean 0.00026641387765745
field stddev 0.00028787086315964
field sum 25.554951972658
field sqrsum 0.014757131997514
field min 8.496e-007
field max 0.00127892311
statistic Basic.rack[9].node[0].app 	hops
field count 95922
field mean 5.1266028648277
field stddev 0.80867817610322
field sum 491754
field sqrsum 2583756
field min 4
field max 8
statistic Basic.rack[9].node[1].app 	throughput
field count 94935
field mean 47468
field stddev 27405.518239946
field sum 4506374580
field sqrsum 2.8520994929306e+014
field min 1
field max 94935
statistic Basic.rack[9].node[1].app 	"End-to-End Delay"
field count 94935
field mean 0.0002637576836658
field stddev 0.00028707661401477
field sum 25.039835698813
field sqrsum 0.014428243126306
field min 8.496e-007
field max 0.001261768268
statistic Basic.rack[9].node[1].app 	hops
field count 94935
field mean 5.1203454995523
field stddev 0.80756355562027
field sum 486100
field sqrsum 2550912
field min 4
field max 8
statistic Basic.rack[9].node[2].app 	throughput
field count 95918
field mean 47959.5
field stddev 27689.285897256
field sum 4600179321
field sqrsum 2.9416153346756e+014
field min 1
field max 95918
statistic Basic.rack[9].node[2].app 	"End-to-End Delay"
field count 95918
field mean 0.00026820695414006
field stddev 0.00028875078726973
field sum 25.725874627206
field sqrsum 0.014897131830222
field min 8.496e-007
field max 0.001263315093
statistic Basic.rack[9].node[2].app 	hops
field count 95918
field mean 5.129767092725
field stddev 0.80937322105829
field sum 492037
field sqrsum 2586869
field min 4
field max 8
statistic Basic.rack[9].node[3].app 	throughput
field count 95744
field mean 47872.5
field stddev 27639.056423836
field sum 4583504640
field sqrsum 2.9256357333632e+014
field min 1
field max 95744
statistic Basic.rack[9].node[3].app 	"End-to-End Delay"
field count 95744
field mean 0.00026715128960428
field stddev 0.00028893154755443
field sum 25.578133071872
field sqrsum 0.014825994666484
field min 8.496e-007
field max 0.001277631461
statistic Basic.rack[9].node[3].app 	hops
field count 95744
field mean 5.1309742647059
field stddev 0.80634645893161
field sum 491260
field sqrsum 2582894
field min 4
field max 8
statistic Basic.rack[9].node[4].app 	throughput
field count 95767
field mean 47884
field stddev 27645.695951932
field sum 4585707028
field sqrsum 2.9277446520266e+014
field min 1
field max 95767
statistic Basic.rack[9].node[4].app 	"End-to-End Delay"
field count 95767
field mean 0.00026622098592753
field stddev 0.00028800399788328
field sum 25.495185159322
field sqrsum 0.014730788963154
field min 8.496e-007
field max 0.001259459555
statistic Basic.rack[9].node[4].app 	hops
field count 95767
field mean 5.1266824689089
field stddev 0.80522260128541
field sum 490967
field sqrsum 2579125
field min 4
field max 8
statistic Basic.rack[9].node[5].app 	throughput
field count 95036
field mean 47518.5
field stddev 27434.67442854
field sum 4515968166
field sqrsum 2.8612120573871e+014
field min 1
field max 95036
statistic Basic.rack[9].node[5].app 	"End-to-End Delay"
field count 95036
field mean 0.00026467582145739
field stddev 0.00028809019841743
field sum 25.153731368025
field sqrsum 0.014545105801534
field min 8.496e-007
field max 0.001259133106
statistic Basic.rack[9].node[5].app 	hops
field count 95036
field mean 5.1198387979292
field stddev 0.80635240293601
field sum 486569
field sqrsum 2552947
field min 4
field max 8
statistic Basic.rack[9].node[6].app 	throughput
field count 95924
field mean 47962.5
field stddev 27691.017948064
field sum 4600754850
field sqrsum 2.9421673907255e+014
field min 1
field max 95924
statistic Basic.rack[9].node[6].app 	"End-to-End Delay"
field count 95924
field mean 0.00026585838823754
field stddev 0.00028797566136546
field sum 25.502200033298
field sqrsum 0.014734866416518
field min 8.496e-007
field max 0.001258979198
statistic Basic.rack[9].node[6].app 	hops
field count 95924
field mean 5.1251824360952
field stddev 0.80628305112472
field sum 491628
field sqrsum 2582042
field min 4
field max 8
statistic Basic.rack[9].node[7].app 	throughput
field count 95828
field mean 47914.5
field stddev 27663.305135142
field sum 4591550706
field sqrsum 2.9333427788661e+014
field min 1
field max 95828
statistic Basic.rack[9].node[7].app 	"End-to-End Delay"
field count 95828
field mean 0.00026667954032244
field stddev 0.00028840097792166
field sum 25.555366990019
field sqrsum 0.014785516135558
field min 8.496e-007
field max 0.001265375937
statistic Basic.rack[9].node[7].app 	hops
field count 95828
field mean 5.1294611178361
field stddev 0.80837385241321
field sum 491546
field sqrsum 2583986
field min 4
field max 8
statistic Basic.rack[9].node[8].app 	throughput
field count 95427
field mean 47714
field stddev 27547.546406168
field sum 4553203878
field sqrsum 2.8966724204523e+014
field min 1
field max 95427
statistic Basic.rack[9].node[8].app 	"End-to-End Delay"
field count 95427
field mean 0.00026601354191531
field stddev 0.00028845605548897
field sum 25.384874264352
field sqrsum 0.014692821566893
field min 8.496e-007
field max 0.001264787963
statistic Basic.rack[9].node[8].app 	hops
field count 95427
field mean 5.1253942804447
field stddev 0.80332611355504
field sum 489101
field sqrsum 2568417
field min 4
field max 8
statistic Basic.rack[9].node[9].app 	throughput
field count 95758
field mean 47879.5
field stddev 27643.097875721
field sum 4584845161
field sqrsum 2.9269193023308e+014
field min 1
field max 95758
statistic Basic.rack[9].node[9].app 	"End-to-End Delay"
field count 95758
field mean 0.00026593185856455
field stddev 0.00028744586236914
field sum 25.465102912424
field sqrsum 0.014683916125098
field min 8.496e-007
field max 0.001262921632
statistic Basic.rack[9].node[9].app 	hops
field count 95758
field mean 5.1241985003864
field stddev 0.80652271618655
field sum 490683
field sqrsum 2576645
field min 4
field max 8
statistic Basic.rack[9].eps.queue[0] 	dropsum
field count 0
field mean nan
field stddev nan
field sum 0
field sqrsum 0
field min nan
field max nan
statistic Basic.rack[9].eps.queue[1] 	dropsum
field count 778751
field mean 389376
field stddev 224806.19407771
field sum 303226949376
field sqrsum 1.5742562777776e+017
field min 1
field max 778751
statistic Basic.rack[9].eps.queue[2] 	dropsum
field count 0
field mean nan
field stddev nan
field sum 0
field sqrsum 0
field min nan
field max nan
statistic Basic.rack[9].eps.queue[3] 	dropsum
field count 0
field mean nan
field stddev nan
field sum 0
field sqrsum 0
field min nan
field max nan
statistic Basic.rack[10].node[0].app 	throughput
field count 71072
field mean 35536.5
field stddev 20516.863502982
field sum 2525650128
field sqrsum 1.1966951248152e+014
field min 1
field max 71072
statistic Basic.rack[10].node[0].app 	"End-to-End Delay"
field count 71072
field mean 0.00043012601110122
field stddev 0.00029430036093542
field sum 30.569915860986
field sqrsum 0.019304567344577
field min 8.496e-007
field max 0.001240590322
statistic Basic.rack[10].node[0].app 	hops
field count 71072
field mean 4.6680690004502
field stddev 0.85560652525572
field sum 331769
field sqrsum 1600749
field min 3
field max 7
statistic Basic.rack[10].node[1].app 	throughput
field count 70896
field mean 35448.5
field stddev 20466.056679292
field sum 2513156856
field sqrsum 1.1878268336094e+014
field min 1
field max 70896
statistic Basic.rack[10].node[1].app 	"End-to-End Delay"
field count 70896
field mean 0.00042630677945607
field stddev 0.00029424761424638
field sum 30.223445436317
field sqrsum 0.019022666366649
field min 8.496e-007
field max 0.001240295902
statistic Basic.rack[10].node[1].app 	hops
field count 70896
field mean 4.6665679304897
field stddev 0.84933065923239
field sum 330841
field sqrsum 1595033
field min 3
field max 7
statistic Basic.rack[10].node[2].app 	throughput
field count 70819
field mean 35410
field stddev 20443.828693928
field sum 2507700790
field sqrsum 1.1839607739827e+014
field min 1
field max 70819
statistic Basic.rack[10].node[2].app 	"End-to-End Delay"
field count 70819
field mean 0.00042868360086821
field stddev 0.00029454951639442
field sum 30.358943929886
field sqrsum 0.019158509838596
field min 8.496e-007
field max 0.001240489348
statistic Basic.rack[10].node[2].app 	hops
field count 70819
field mean 4.6655276126463
field stddev 0.85212663845761
field sum 330408
field sqrsum 1592950
field min 3
field max 7
statistic Basic.rack[10].node[3].app 	throughput
field count 71337
field mean 35669
field stddev 20593.362413652
field sum 2544519453
field sqrsum 1.2101310431892e+014
field min 1
field max 71337
statistic Basic.rack[10].node[3].app 	"End-to-End Delay"
field count 71337
field mean 0.00042985698530395
field stddev 0.00029388460835922
field sum 30.664707760628
field sqrsum 0.019342598111151
field min 8.496e-007
field max 0.001240335285
statistic Basic.rack[10].node[3].app 	hops
field count 71337
field mean 4.6723719808795
field stddev 0.85001993802945
field sum 333313
field sqrsum 1608905
field min 3
field max 7
statistic Basic.rack[10].node[4].app 	throughput
field count 70939
field mean 35470
field stddev 20478.46971008
field sum 2516206330
field sqrsum 1.1899894596469e+014
field min 1
field max 70939
statistic Basic.rack[10].node[4].app 	"End-to-End Delay"
field count 70939
field mean 0.0004275688400163
field stddev 0.00029388171166376
field sum 30.331305941916
field sqrsum 0.019095385269197
field min 8.496e-007
field max 0.001240384934
statistic Basic.rack[10].node[4].app 	hops
field count 70939
field mean 4.6647119356066
field stddev 0.85064214431797
field sum 330910
field sqrsum 1594930
field min 3
field max 7
statistic Basic.rack[10].node[5].app 	throughput
field count 70731
field mean 35366
field stddev 20418.425282083
field sum 2501472546
field sqrsum 1.1795527025827e+014
field min 1
field max 70731
statistic Basic.rack[10].node[5].app 	"End-to-End Delay"
field count 70731
field mean 0.00042715490491767
field stddev 0.00029424134796958
field sum 30.213093579731
field sqrsum 0.01902933099389
field min 8.496e-007
field max 0.001240275233
statistic Basic.rack[10].node[5].app 	hops
field count 70731
field mean 4.6659739011183
field stddev 0.84958302151447
field sum 330029
field sqrsum 1590959
field min 3
field max 7
statistic Basic.rack[10].node[6].app 	throughput
field count 70857
field mean 35429
field stddev 20454.798349043
field sum 2510392653
field sqrsum 1.1858676493996e+014
field min 1
field max 70857
statistic Basic.rack[10].node[6].app 	"End-to-End Delay"
field count 70857
field mean 0.00042918188514434
field stddev 0.00029418217743813
field sum 30.410540835672
field sqrsum 0.019183754930084
field min 8.496e-007
field max 0.001240217496
statistic Basic.rack[10].node[6].app 	hops
field count 70857
field mean 4.6702231254498
field stddev 0.85266605458938
field sum 330918
field sqrsum 1596976
field min 3
field max 7
statistic Basic.rack[10].node[7].app 	throughput
field count 71177
field mean 35589
field stddev 20547.174392115
field sum 2533118253
field sqrsum 1.202006829686e+014
field min 1
field max 71177
statistic Basic.rack[10].node[7].app 	"End-to-End Delay"
field count 71177
field mean 0.00042783277530478
field stddev 0.0002941700415996
field sum 30.451853447868
field sqrsum 0.019187588261734
field min 8.496e-007
field max 0.001240490218
statistic Basic.rack[10].node[7].app 	hops
field count 71177
field mean 4.6642033241075
field stddev 0.84793519458154
field sum 331984
field sqrsum 1599616
field min 3
field max 7
statistic Basic.rack[10].node[8].app 	throughput
field count 70915
field mean 35458
field stddev 20471.54150685
field sum 2514504070
field sqrsum 1.1887820891739e+014
field min 1
field max 70915
statistic Basic.rack[10].node[8].app 	"End-to-End Delay"
field count 70915
field mean 0.00042944945236792
field stddev 0.0002947249943758
field sum 30.454407914671
field sqrsum 0.019238418982423
field min 8.496e-007
field max 0.001240708459
statistic Basic.rack[10].node[8].app 	hops
field count 70915
field mean 4.6676020588028
field stddev 0.84830072518203
field sum 331003
field sqrsum 1596021
field min 3
field max 7
statistic Basic.rack[10].node[9].app 	throughput
field count 70710
field mean 35355.5
field stddev 20412.363104256
field sum 2499987405
field sqrsum 1.1785023960084e+014
field min 1
field max 70710
statistic Basic.rack[10].node[9].app 	"End-to-End Delay"
field count 70710
field mean 0.00042749006147163
field stddev 0.00029366608949795
field sum 30.227822246659
field sqrsum 0.019020021637283
field min 8.496e-007
field max 0.001240121792
statistic Basic.rack[10].node[9].app 	hops
field count 70710
field mean 4.6711921934663
field stddev 0.84775058353858
field sum 330300
field sqrsum 1593712
field min 3
field max 7
statistic Basic.rack[10].eps.queue[0] 	dropsum
field count 0
field mean nan
field stddev nan
field sum 0
field sqrsum 0
field min nan
field max nan
statistic Basic.rack[10].eps.queue[1] 	dropsum
field count 2191612
field mean 1095806.5
field stddev 632664.03341866
field sum 2401582675078
field sqrsum 3.5088924069938e+018
field min 1
field max 2191612
statistic Basic.rack[10].eps.queue[2] 	dropsum
field count 0
field mean nan
field stddev nan
field sum 0
field sqrsum 0
field min nan
field max nan
statistic Basic.rack[10].eps.queue[3] 	dropsum
field count 0
field mean nan
field stddev nan
field sum 0
field sqrsum 0
field min nan
field max nan
statistic Basic.rack[11].node[0].app 	throughput
field count 71837
field mean 35919
field stddev 20737.699980953
field sum 2580313203
field sqrsum 1.2357549981368e+014
field min 1
field max 71837
statistic Basic.rack[11].node[0].app 	"End-to-End Delay"
field count 71837
field mean 0.00045498873487913
field stddev 0.00034886663003694
field sum 32.685025747512
field sqrsum 0.023614329054402
field min 8.496e-007
field max 0.001252695573
statistic Basic.rack[11].node[0].app 	hops
field count 71837
field mean 4.8600164260757
field stddev 1.0363025119761
field sum 349129
field sqrsum 1773919
field min 3
field max 7
statistic Basic.rack[11].node[1].app 	throughput
field count 71946
field mean 35973.5
field stddev 20769.165570624
field sum 2588149431
field sqrsum 1.2413886202496e+014
field min 1
field max 71946
statistic Basic.rack[11].node[1].app 	"End-to-End Delay"
field count 71946
field mean 0.00045721144244045
field stddev 0.00034962758008176
field sum 32.894534437821
field sqrsum 0.023834274391537
field min 8.496e-007
field max 0.001252577389
statistic Basic.rack[11].node[1].app 	hops
field count 71946
field mean 4.8691657632113
field stddev 1.0392228430122
field sum 350317
field sqrsum 1783451
field min 3
field max 7
statistic Basic.rack[11].node[2].app 	throughput
field count 71770
field mean 35885.5
field stddev 20718.358746934
field sum 2575502335
field sqrsum 1.2323006022274e+014
field min 1
field max 71770
statistic Basic.rack[11].node[2].app 	"End-to-End Delay"
field count 71770
field mean 0.0004541434994695
field stddev 0.00034795813176523
field sum 32.593878956926
[...]
field sqrsum 2856518
field min 4
field max 9
statistic Basic.rack[13].node[2].app 	throughput
field count 80674
field mean 40337.5
field stddev 23288.722145422
field sum 3254187475
field sqrsum 1.7501996496792e+014
field min 1
field max 80674
statistic Basic.rack[13].node[2].app 	"End-to-End Delay"
field count 80674
field mean 0.00038642652086665
field stddev 0.0003510217815519
field sum 31.174573144396
field sqrsum 0.021986909693528
field min 9.4416e-006
field max 0.001640634618
statistic Basic.rack[13].node[2].app 	hops
field count 80674
field mean 5.8289411706374
field stddev 1.1639353740453
field sum 470244
field sqrsum 2850316
field min 4
field max 9
statistic Basic.rack[13].node[3].app 	throughput
field count 81347
field mean 40674
field stddev 23483.000511008
field sum 3308707878
field sqrsum 1.7943674273707e+014
field min 1
field max 81347
statistic Basic.rack[13].node[3].app 	"End-to-End Delay"
field count 81347
field mean 0.00038817420267307
field stddev 0.00035302432564668
field sum 31.576806864846
field sqrsum 0.022395142618462
field min 9.4416e-006
field max 0.001630650983
statistic Basic.rack[13].node[3].app 	hops
field count 81347
field mean 5.8421330841949
field stddev 1.1691072682718
field sum 475240
field sqrsum 2887600
field min 4
field max 9
statistic Basic.rack[13].node[4].app 	throughput
field count 81231
field mean 40616
field stddev 23449.514195394
field sum 3299278296
field sqrsum 1.7867021660102e+014
field min 1
field max 81231
statistic Basic.rack[13].node[4].app 	"End-to-End Delay"
field count 81231
field mean 0.00038832181132624
field stddev 0.00035197973727485
field sum 31.543769055842
field sqrsum 0.022312696746593
field min 9.4416e-006
field max 0.00164030232
statistic Basic.rack[13].node[4].app 	hops
field count 81231
field mean 5.8360970565425
field stddev 1.171430374533
field sum 474072
field sqrsum 2878198
field min 4
field max 9
statistic Basic.rack[13].node[5].app 	throughput
field count 81406
field mean 40703.5
field stddev 23500.032343949
field sum 3313509121
field sqrsum 1.7982745350579e+014
field min 1
field max 81406
statistic Basic.rack[13].node[5].app 	"End-to-End Delay"
field count 81406
field mean 0.00038791835922571
field stddev 0.00035216588098155
field sum 31.578881951128
field sqrsum 0.022345941925722
field min 9.4416e-006
field max 0.001641283976
statistic Basic.rack[13].node[5].app 	hops
field count 81406
field mean 5.8347787632361
field stddev 1.1707581753127
field sum 474986
field sqrsum 2883018
field min 4
field max 9
statistic Basic.rack[13].node[6].app 	throughput
field count 80819
field mean 40410
field stddev 23330.580039939
field sum 3265895790
field sqrsum 1.7596537653327e+014
field min 1
field max 80819
statistic Basic.rack[13].node[6].app 	"End-to-End Delay"
field count 80819
field mean 0.00038704888779414
field stddev 0.00035173212339869
field sum 31.280904062634
field sqrsum 0.022105677325146
field min 9.4416e-006
field max 0.001625804902
statistic Basic.rack[13].node[6].app 	hops
field count 80819
field mean 5.8336900976256
field stddev 1.1677869054558
field sum 471473
field sqrsum 2860641
field min 4
field max 9
statistic Basic.rack[13].node[7].app 	throughput
field count 81148
field mean 40574.5
field stddev 23425.554159223
field sum 3292539526
field sqrsum 1.7812309581707e+014
field min 1
field max 81148
statistic Basic.rack[13].node[7].app 	"End-to-End Delay"
field count 81148
field mean 0.00038993362550736
field stddev 0.00035386003521992
field sum 31.642333842671
field sqrsum 0.022499387729286
field min 9.4416e-006
field max 0.00166324707
statistic Basic.rack[13].node[7].app 	hops
field count 81148
field mean 5.8444077488047
field stddev 1.1760897952042
field sum 474262
field sqrsum 2884022
field min 4
field max 9
statistic Basic.rack[13].node[8].app 	throughput
field count 80798
field mean 40399.5
field stddev 23324.517862112
field sum 3264198801
field sqrsum 1.758282445484e+014
field min 1
field max 80798
statistic Basic.rack[13].node[8].app 	"End-to-End Delay"
field count 80798
field mean 0.00038800354112923
field stddev 0.00035347657473763
field sum 31.349910116159
field sqrsum 0.022259112964256
field min 9.4416e-006
field max 0.001666640792
statistic Basic.rack[13].node[8].app 	hops
field count 80798
field mean 5.8362830763138
field stddev 1.1748840978829
field sum 471560
field sqrsum 2863686
field min 4
field max 9
statistic Basic.rack[13].node[9].app 	throughput
field count 80576
field mean 40288.5
field stddev 23260.431982231
field sum 3246286176
field sqrsum 1.7438291870698e+014
field min 1
field max 80576
statistic Basic.rack[13].node[9].app 	"End-to-End Delay"
field count 80576
field mean 0.00038918517137061
field stddev 0.00035415024953772
field sum 31.358984368358
field sqrsum 0.022310361524785
field min 9.4416e-006
field max 0.001664498519
statistic Basic.rack[13].node[9].app 	hops
field count 80576
field mean 5.8404487688642
field stddev 1.1721497172435
field sum 470600
field sqrsum 2859220
field min 4
field max 9
statistic Basic.rack[13].eps.queue[0] 	dropsum
field count 15
field mean 8
field stddev 4.4721359549996
field sum 120
field sqrsum 1240
field min 1
field max 15
statistic Basic.rack[13].eps.queue[1] 	dropsum
field count 111999
field mean 56000
field stddev 32331.47073673
field sum 6271944000
field sqrsum 4.68303061352e+014
field min 1
field max 111999
statistic Basic.rack[13].eps.queue[2] 	dropsum
field count 0
field mean nan
field stddev nan
field sum 0
field sqrsum 0
field min nan
field max nan
statistic Basic.rack[13].eps.queue[3] 	dropsum
field count 0
field mean nan
field stddev nan
field sum 0
field sqrsum 0
field min nan
field max nan
statistic Basic.rack[14].node[0].app 	throughput
field count 50517
field mean 25259
field stddev 14583.146111179
field sum 1276008903
field sqrsum 42973853171535
field min 1
field max 50517
statistic Basic.rack[14].node[0].app 	"End-to-End Delay"
field count 50517
field mean 0.00062334752923244
field stddev 0.00027066026161837
field sum 31.489647134235
field sqrsum 0.023329643198738
field min 2.7746506e-005
field max 0.0016409234
statistic Basic.rack[14].node[0].app 	hops
field count 50517
field mean 5.4985054536097
field stddev 1.5597804524412
field sum 277768
field sqrsum 1650210
field min 3
field max 8
statistic Basic.rack[14].node[1].app 	throughput
field count 50514
field mean 25257.5
field stddev 14582.280085775
field sum 1275857355
field sqrsum 42966197572765
field min 1
field max 50514
statistic Basic.rack[14].node[1].app 	"End-to-End Delay"
field count 50514
field mean 0.00062774935550994
field stddev 0.00027169373965228
field sum 31.710130944229
field sqrsum 0.023634757043117
field min 0.0003457244
field max 0.001653797566
statistic Basic.rack[14].node[1].app 	hops
field count 50514
field mean 5.5147285900938
field stddev 1.5625176620321
field sum 278571
field sqrsum 1659569
field min 3
field max 8
statistic Basic.rack[14].node[2].app 	throughput
field count 50419
field mean 25210
field stddev 14554.855947987
field sum 1271062990
field sqrsum 42724240282870
field min 1
field max 50419
statistic Basic.rack[14].node[2].app 	"End-to-End Delay"
field count 50419
field mean 0.00062588575049443
field stddev 0.00027134673440659
field sum 31.556533654179
field sqrsum 0.023463014205819
field min 2.5906592e-005
field max 0.001651984029
statistic Basic.rack[14].node[2].app 	hops
field count 50419
field mean 5.4924730756263
field stddev 1.5659303934049
field sum 276925
field sqrsum 1644635
field min 3
field max 8
statistic Basic.rack[14].node[3].app 	throughput
field count 50467
field mean 25234
field stddev 14568.712354449
field sum 1273484278
field sqrsum 42846378533310
field min 1
field max 50467
statistic Basic.rack[14].node[3].app 	"End-to-End Delay"
field count 50467
field mean 0.00062287647488874
field stddev 0.00026941464528348
field sum 31.43470705821
field sqrsum 0.023242976337249
field min 0.000242827406
field max 0.001639579505
statistic Basic.rack[14].node[3].app 	hops
field count 50467
field mean 5.4887352131096
field stddev 1.5671115162971
field sum 277000
field sqrsum 1644316
field min 3
field max 8
statistic Basic.rack[14].node[4].app 	throughput
field count 50440
field mean 25220.5
field stddev 14560.918125814
field sum 1272122020
field sqrsum 42777647166540
field min 1
field max 50440
statistic Basic.rack[14].node[4].app 	"End-to-End Delay"
field count 50440
field mean 0.0006239010315784
field stddev 0.00027110642460205
field sum 31.469568032815
field sqrsum 0.023341096558454
field min 0.00014638207
field max 0.001648399816
statistic Basic.rack[14].node[4].app 	hops
field count 50440
field mean 5.4861419508327
field stddev 1.5663033664405
field sum 276721
field sqrsum 1641873
field min 3
field max 8
statistic Basic.rack[14].node[5].app 	throughput
field count 50719
field mean 25360
field stddev 14641.45848837
field sum 1286233840
field sqrsum 43491424831920
field min 1
field max 50719
statistic Basic.rack[14].node[5].app 	"End-to-End Delay"
field count 50719
field mean 0.00062283774613827
field stddev 0.00027085680481005
field sum 31.589707646387
field sqrsum 0.023396107674693
field min 0.000324627357
field max 0.001659747603
statistic Basic.rack[14].node[5].app 	hops
field count 50719
field mean 5.4869772669019
field stddev 1.5677400405768
field sum 278294
field sqrsum 1651648
field min 3
field max 8
statistic Basic.rack[14].node[6].app 	throughput
field count 50892
field mean 25446.5
field stddev 14691.399286657
field sum 1295023278
field sqrsum 43937981450410
field min 1
field max 50892
statistic Basic.rack[14].node[6].app 	"End-to-End Delay"
field count 50892
field mean 0.000623297486992
field stddev 0.00026947575427248
field sum 31.720855707997
field sqrsum 0.023467090664354
field min 0.000114758272
field max 0.001634592042
statistic Basic.rack[14].node[6].app 	hops
field count 50892
field mean 5.4858327438497
field stddev 1.5624319625332
field sum 279185
field sqrsum 1655797
field min 3
field max 8
statistic Basic.rack[14].node[7].app 	throughput
field count 50545
field mean 25273
field stddev 14591.229014948
field sum 1277423785
field sqrsum 43045349283145
field min 1
field max 50545
statistic Basic.rack[14].node[7].app 	"End-to-End Delay"
field count 50545
field mean 0.0006257767692316
field stddev 0.00027158760983455
field sum 31.629886800811
field sqrsum 0.023521365211575
field min 0.000240140485
field max 0.00165206525
statistic Basic.rack[14].node[7].app 	hops
field count 50545
field mean 5.5011376001583
field stddev 1.566734509528
field sum 278055
field sqrsum 1653687
field min 3
field max 8
statistic Basic.rack[14].node[8].app 	throughput
field count 50711
field mean 25356
field stddev 14639.149087293
field sum 1285828116
field sqrsum 43470848336356
field min 1
field max 50711
statistic Basic.rack[14].node[8].app 	"End-to-End Delay"
field count 50711
field mean 0.00062402992733985
field stddev 0.00027089886471657
field sum 31.645181645331
field sqrsum 0.023468954346411
field min 0.000139450836
field max 0.001649309749
statistic Basic.rack[14].node[8].app 	hops
field count 50711
field mean 5.4886119382383
field stddev 1.5676877591416
field sum 278333
field sqrsum 1652289
field min 3
field max 8
statistic Basic.rack[14].node[9].app 	throughput
field count 50817
field mean 25409
field stddev 14669.748651562
field sum 1291209153
field sqrsum 43744014088385
field min 1
field max 50817
statistic Basic.rack[14].node[9].app 	"End-to-End Delay"
field count 50817
field mean 0.00062368436610817
field stddev 0.00027080140069182
field sum 31.693768432519
field sqrsum 0.023493417858519
field min 5.3056517e-005
field max 0.001621567664
statistic Basic.rack[14].node[9].app 	hops
field count 50817
field mean 5.4910954995376
field stddev 1.5632914916839
field sum 279041
field sqrsum 1656429
field min 3
field max 8
statistic Basic.rack[14].eps.queue[0] 	dropsum
field count 0
field mean nan
field stddev nan
field sum 0
field sqrsum 0
field min nan
field max nan
statistic Basic.rack[14].eps.queue[1] 	dropsum
field count 1857163
field mean 928582
field stddev 536116.92332864
field sum 1724528132866
field sqrsum 2.1351538020577e+018
field min 1
field max 1857163
statistic Basic.rack[14].eps.queue[2] 	dropsum
field count 0
field mean nan
field stddev nan
field sum 0
field sqrsum 0
field min nan
field max nan
statistic Basic.rack[14].eps.queue[3] 	dropsum
field count 0
field mean nan
field stddev nan
field sum 0
field sqrsum 0
field min nan
field max nan
statistic Basic.rack[15].node[0].app 	throughput
field count 50113
field mean 25057
field stddev 14466.521356797
field sum 1255681441
field sqrsum 41951061262369
field min 1
field max 50113
statistic Basic.rack[15].node[0].app 	"End-to-End Delay"
field count 50113
field mean 0.00060370308919232
field stddev 0.00020184963461525
field sum 30.253372908695
field sqrsum 0.020305781679981
field min 0.000121268085
field max 0.001326151372
statistic Basic.rack[15].node[0].app 	hops
field count 50113
field mean 5.1564464310658
field stddev 1.2823516234138
field sum 258405
field sqrsum 1414857
field min 3
field max 8
statistic Basic.rack[15].node[1].app 	throughput
field count 50259
field mean 25130
field stddev 14508.66792645
field sum 1263008670
field sqrsum 42318789499910
field min 1
field max 50259
statistic Basic.rack[15].node[1].app 	"End-to-End Delay"
field count 50259
field mean 0.00060375629105374
field stddev 0.00020189757171153
field sum 30.34418743207
field sqrsum 0.020369142290578
field min 0.000176700922
field max 0.001376386913
statistic Basic.rack[15].node[1].app 	hops
field count 50259
field mean 5.151714120854
field stddev 1.2867865275954
field sum 258920
field sqrsum 1417100
field min 3
field max 8
statistic Basic.rack[15].node[2].app 	throughput
field count 50006
field mean 25003.5
field stddev 14435.633117394
field sum 1250325021
field sqrsum 41682918775091
field min 1
field max 50006
statistic Basic.rack[15].node[2].app 	"End-to-End Delay"
field count 50006
field mean 0.00060396096634022
field stddev 0.00020184713712888
field sum 30.201672082809
field sqrsum 0.020277948105914
field min 9.7730133e-005
field max 0.001311478937
statistic Basic.rack[15].node[2].app 	hops
field count 50006
field mean 5.1534215894093
field stddev 1.2806619311211
field sum 257702
field sqrsum 1410060
field min 3
field max 8
statistic Basic.rack[15].node[3].app 	throughput
field count 49895
field mean 24948
field stddev 14403.590177452
field sum 1244780460
field sqrsum 41405962294620
field min 1
field max 49895
statistic Basic.rack[15].node[3].app 	"End-to-End Delay"
field count 49895
field mean 0.00060327333798419
field stddev 0.00020161750966648
field sum 30.100323198721
field sqrsum 0.020186894600959
field min 8.992e-006
field max 0.001446416576
statistic Basic.rack[15].node[3].app 	hops
field count 49895
field mean 5.1335203928249
field stddev 1.27622203293
field sum 256137
field sqrsum 1396149
field min 3
field max 8
statistic Basic.rack[15].node[4].app 	throughput
field count 50044
field mean 25022.5
field stddev 14446.602772509
field sum 1252225990
field sqrsum 41778015704370
field min 1
field max 50044
statistic Basic.rack[15].node[4].app 	"End-to-End Delay"
field count 50044
field mean 0.00060407991409881
field stddev 0.00020199548547552
field sum 30.230575221161
field sqrsum 0.020303546583956
field min 5.7718137e-005
field max 0.001394192986
statistic Basic.rack[15].node[4].app 	hops
field count 50044
field mean 5.1498681160579
field stddev 1.2831149178635
field sum 257720
field sqrsum 1409614
field min 3
field max 8
statistic Basic.rack[15].node[5].app 	throughput
field count 49849
field mean 24925
field stddev 14390.31112126
field sum 1242486325
field sqrsum 41291548038725
field min 1
field max 49849
statistic Basic.rack[15].node[5].app 	"End-to-End Delay"
field count 49849
field mean 0.00060230448785362
field stddev 0.00020176656688194
field sum 30.024276415015
field sqrsum 0.020113055923266
field min 0.00039001107
field max 0.001432957229
statistic Basic.rack[15].node[5].app 	hops
field count 49849
field mean 5.1432927440871
field stddev 1.2806306429664
field sum 256388
field sqrsum 1400430
field min 3
field max 8
statistic Basic.rack[15].node[6].app 	throughput
field count 50185
field mean 25093
field stddev 14487.305966489
field sum 1259292205
field sqrsum 42132139302685
field min 1
field max 50185
statistic Basic.rack[15].node[6].app 	"End-to-End Delay"
field count 50185
field mean 0.0006045415602859
field stddev 0.00020207567302621
field sum 30.338918202948
field sqrsum 0.02039037939153
field min 8.5662804e-005
field max 0.001333117872
statistic Basic.rack[15].node[6].app 	hops
field count 50185
field mean 5.154309056491
field stddev 1.2790310497257
field sum 258669
field sqrsum 1415357
field min 3
field max 8
statistic Basic.rack[15].node[7].app 	throughput
field count 49918
field mean 24959.5
field stddev 14410.229705548
field sum 1245928321
field sqrsum 41463248594559
field min 1
field max 49918
statistic Basic.rack[15].node[7].app 	"End-to-End Delay"
field count 49918
field mean 0.00060323134761904
field stddev 0.00020217409286414
field sum 30.112102410447
field sqrsum 0.020204889735771
field min 3.2844871e-005
field max 0.001483466982
statistic Basic.rack[15].node[7].app 	hops
field count 49918
field mean 5.1493048599704
field stddev 1.2859976317324
field sum 257043
field sqrsum 1406145
field min 3
field max 8
statistic Basic.rack[15].node[8].app 	throughput
field count 50333
field mean 25167
field stddev 14530.029886411
field sum 1266730611
field sqrsum 42505990139179
field min 1
field max 50333
statistic Basic.rack[15].node[8].app 	"End-to-End Delay"
field count 50333
field mean 0.0006033753857445
field stddev 0.00020193268576316
field sum 30.369693290678
field sqrsum 0.020376703783962
field min 0.000142689295
field max 0.001281518493
statistic Basic.rack[15].node[8].app 	hops
field count 50333
field mean 5.1491864184531
field stddev 1.2802390960469
field sum 259174
field sqrsum 1417030
field min 3
field max 8
statistic Basic.rack[15].node[9].app 	throughput
field count 49959
field mean 24980
field stddev 14422.065386067
field sum 1247975820
field sqrsum 41565498652860
field min 1
field max 49959
statistic Basic.rack[15].node[9].app 	"End-to-End Delay"
field count 49959
field mean 0.00060295391325031
field stddev 0.00020199816144369
field sum 30.122974552072
field sqrsum 0.020201214509439
field min 0.000230486636
field max 0.00131301628
statistic Basic.rack[15].node[9].app 	hops
field count 49959
field mean 5.1532656778558
field stddev 1.2774347887036
field sum 257452
field sqrsum 1408242
field min 3
field max 8
statistic Basic.rack[15].eps.queue[0] 	dropsum
field count 1957695
field mean 978848
field stddev 565138.01195976
field sum 1916285835360
field sqrsum 2.5010027710689e+018
field min 1
field max 1957695
statistic Basic.rack[15].eps.queue[1] 	dropsum
field count 0
field mean nan
field stddev nan
field sum 0
field sqrsum 0
field min nan
field max nan
statistic Basic.rack[15].eps.queue[2] 	dropsum
field count 0
field mean nan
field stddev nan
field sum 0
field sqrsum 0
field min nan
field max nan
statistic Basic.rack[15].eps.queue[3] 	dropsum
field count 0
field mean nan
field stddev nan
field sum 0
field sqrsum 0
field min nan
field max nan
