version 2
run Basic-5-20180510-15:59:42-10224
attr configname Basic
attr datetime 20180510-15:59:42
attr experiment Basic
attr inifile omnetpp.ini
attr iterationvars "$0=exponential(0.5 ms), $1=5, $2=3"
attr iterationvarsf exponential(0.5_ms),5,3-
attr measurement "$0=exponential(0.5 ms), $1=5, $2=3"
attr network Networks.Basic
attr processid 10224
attr repetition 0
attr replication #0
attr resultdir results
attr runnumber 5
attr seedset 5
param **.frameCapacity 50
param **.packetLength "1024 bytes"
param **.pattern 5
param **.sendIaTime "exponential(0.5 ms)"
param **.tp 3

statistic Basic.rack[0].node[0].app 	throughput
field count 19958
field mean 9979.5
field stddev 5761.5226720026
field sum 199170861
field sqrsum 2650101086179
field min 1
field max 19958
statistic Basic.rack[0].node[0].app 	"End-to-End Delay"
field count 19958
field mean 9.6924942498266e-006
field stddev 1.723283798443e-006
field sum 0.19344280023804
field sqrsum 1.9342096725739e-006
field min 8.992e-006
field max 3.3093962e-005
statistic Basic.rack[0].node[0].app 	hops
field count 19958
field mean 4.0008016835354
field stddev 1.0000247321956
field sum 79848
field sqrsum 339414
field min 3
field max 5
statistic Basic.rack[0].node[1].app 	throughput
field count 20030
field mean 10015.5
field stddev 5782.3072816999
field sum 200610465
field sqrsum 2678885279455
field min 1
field max 20030
statistic Basic.rack[0].node[1].app 	"End-to-End Delay"
field count 20030
field mean 9.6847977035466e-006
field stddev 1.6850333422827e-006
field sum 0.19398649800204
field sqrsum 1.9355890784448e-006
field min 8.992e-006
field max 3.0069498e-005
statistic Basic.rack[0].node[1].app 	hops
field count 20030
field mean 3.9970044932601
field stddev 1.0000204768385
field sum 80060
field sqrsum 340030
field min 3
field max 5
statistic Basic.rack[0].node[2].app 	throughput
field count 19982
field mean 9991.5
field stddev 5768.450875235
field sum 199650153
field sqrsum 2659672788215
field min 1
field max 19982
statistic Basic.rack[0].node[2].app 	"End-to-End Delay"
field count 19982
field mean 9.6793304123229e-006
field stddev 1.6924948036658e-006
field sum 0.19341238029904
field sqrsum 1.9293386817224e-006
field min 8.992e-006
field max 3.0831562e-005
statistic Basic.rack[0].node[2].app 	hops
field count 19982
field mean 3.9978981082975
field stddev 1.0000228144274
field sum 79886
field sqrsum 339358
field min 3
field max 5
statistic Basic.rack[0].node[3].app 	throughput
field count 19819
field mean 9910
field stddev 5721.3968282812
field sum 196406290
field sqrsum 2595116309770
field min 1
field max 19819
statistic Basic.rack[0].node[3].app 	"End-to-End Delay"
field count 19819
field mean 9.6915462939623e-006
field stddev 1.7053935673922e-006
field sum 0.19207675600004
field sqrsum 1.9191587943285e-006
field min 8.992e-006
field max 2.7788396e-005
statistic Basic.rack[0].node[3].app 	hops
field count 19819
field mean 3.9946011403199
field stddev 1.0000106549542
field sum 79169
field sqrsum 336067
field min 3
field max 5
statistic Basic.rack[0].node[4].app 	throughput
field count 19802
field mean 9901.5
field stddev 5716.4893509916
field sum 196069503
field sqrsum 2588444222105
field min 1
field max 19802
statistic Basic.rack[0].node[4].app 	"End-to-End Delay"
field count 19802
field mean 9.7013886280193e-006
field stddev 1.7544721059748e-006
field sum 0.19210689761204
field sqrsum 1.9246545629686e-006
field min 8.992e-006
field max 3.1148153e-005
statistic Basic.rack[0].node[4].app 	hops
field count 19802
field mean 3.995253004747
field stddev 1.0000139836012
field sum 79114
field sqrsum 335882
field min 3
field max 5
statistic Basic.rack[0].node[5].app 	throughput
field count 20191
field mean 10096
field stddev 5828.7839783841
field sum 203848336
field sqrsum 2744002450896
field min 1
field max 20191
statistic Basic.rack[0].node[5].app 	"End-to-End Delay"
field count 20191
field mean 9.6931958163558e-006
field stddev 1.7076818741672e-006
field sum 0.19571531672804
field sqrsum 1.955984510675e-006
field min 8.992e-006
field max 3.1335885e-005
statistic Basic.rack[0].node[5].app 	hops
field count 20191
field mean 3.9989599326433
field stddev 1.0000242235448
field sum 80743
field sqrsum 343079
field min 3
field max 5
statistic Basic.rack[0].node[6].app 	throughput
field count 20048
field mean 10024.5
field stddev 5787.5034341243
field sum 200971176
field sqrsum 2686113748024
field min 1
field max 20048
statistic Basic.rack[0].node[6].app 	"End-to-End Delay"
field count 20048
field mean 9.6753337058578e-006
field stddev 1.6893836244206e-006
field sum 0.19397109013504
field sqrsum 1.9339495057552e-006
field min 8.992e-006
field max 3.2556037e-005
statistic Basic.rack[0].node[6].app 	hops
field count 20048
field mean 4.0071827613727
field stddev 0.99999914407013
field sum 80336
field sqrsum 341968
field min 3
field max 5
statistic Basic.rack[0].node[7].app 	throughput
field count 19832
field mean 9916.5
field stddev 5725.1496050322
field sum 196664028
field sqrsum 2600226223540
field min 1
field max 19832
statistic Basic.rack[0].node[7].app 	"End-to-End Delay"
field count 19832
field mean 9.6821294949092e-006
field stddev 1.7152266225521e-006
field sum 0.19201599214304
field sqrsum 1.9174665499566e-006
field min 8.992e-006
field max 3.1823792e-005
statistic Basic.rack[0].node[7].app 	hops
field count 19832
field mean 3.9828559903187
field stddev 0.99987823969297
field sum 78988
field sqrsum 334424
field min 3
field max 5
statistic Basic.rack[0].node[8].app 	throughput
field count 19870
field mean 9935.5
field stddev 5736.1192601503
field sum 197418385
field sqrsum 2615201346095
field min 1
field max 19870
statistic Basic.rack[0].node[8].app 	"End-to-End Delay"
field count 19870
field mean 9.7094270324629e-006
field stddev 1.7378053961518e-006
field sum 0.19292631513504
field sqrsum 1.9332077155885e-006
field min 8.992e-006
field max 2.9463666e-005
statistic Basic.rack[0].node[8].app 	hops
field count 19870
field mean 3.9984901862104
field stddev 1.0000240247148
field sum 79450
field sqrsum 337550
field min 3
field max 5
statistic Basic.rack[0].node[9].app 	throughput
field count 19905
field mean 9953
field stddev 5746.2228898643
field sum 198114465
field sqrsum 2629044988705
field min 1
field max 19905
statistic Basic.rack[0].node[9].app 	"End-to-End Delay"
field count 19905
field mean 9.6991330105017e-006
field stddev 1.7355132131595e-006
field sum 0.19306124257404
field sqrsum 1.9324776405725e-006
field min 8.992e-006
field max 2.9009476e-005
statistic Basic.rack[0].node[9].app 	hops
field count 19905
field mean 4.0009545340367
field stddev 1.0000246646841
field sum 79639
field sqrsum 338537
field min 3
field max 5
statistic Basic.rack[0].eps.queue[0] 	dropsum
field count 0
field mean nan
field stddev nan
field sum 0
field sqrsum 0
field min nan
field max nan
statistic Basic.rack[0].eps.queue[1] 	dropsum
field count 0
field mean nan
field stddev nan
field sum 0
field sqrsum 0
field min nan
field max nan
statistic Basic.rack[0].eps.queue[2] 	dropsum
field count 0
field mean nan
field stddev nan
field sum 0
field sqrsum 0
field min nan
field max nan
statistic Basic.rack[0].eps.queue[3] 	dropsum
field count 0
field mean nan
field stddev nan
field sum 0
field sqrsum 0
field min nan
field max nan
statistic Basic.rack[1].node[0].app 	throughput
field count 19802
field mean 9901.5
field stddev 5716.4893509916
field sum 196069503
field sqrsum 2588444222105
field min 1
field max 19802
statistic Basic.rack[1].node[0].app 	"End-to-End Delay"
field count 19802
field mean 9.6889890918613e-006
field stddev 1.7406160369893e-006
field sum 0.19186136199704
field sqrsum 1.91893460821e-006
field min 8.992e-006
field max 3.5389895e-005
statistic Basic.rack[1].node[0].app 	hops
field count 19802
field mean 4.002524997475
field stddev 1.0000220630394
field sum 79258
field sqrsum 337034
field min 3
field max 5
statistic Basic.rack[1].node[1].app 	throughput
field count 20156
field mean 10078.5
field stddev 5818.6803486701
field sum 203142246
field sqrsum 2729757787666
field min 1
field max 20156
statistic Basic.rack[1].node[1].app 	"End-to-End Delay"
field count 20156
field mean 9.6872889253343e-006
field stddev 1.7118664280808e-006
field sum 0.19525699557904
field sqrsum 1.9505748896521e-006
field min 8.992e-006
field max 3.1652004e-005
statistic Basic.rack[1].node[1].app 	hops
field count 20156
field mean 4.0048620758087
field stddev 1.0000129871786
field sum 80722
field sqrsum 343436
field min 3
field max 5
statistic Basic.rack[1].node[2].app 	throughput
field count 20018
field mean 10009.5
field stddev 5778.8431800837
field sum 200370171
field sqrsum 2674073512109
field min 1
field max 20018
statistic Basic.rack[1].node[2].app 	"End-to-End Delay"
field count 20018
field mean 9.6912491704984e-006
field stddev 1.7264414535945e-006
field sum 0.19399942589504
field sqrsum 1.9397594473378e-006
field min 8.992e-006
field max 3.1855343e-005
statistic Basic.rack[1].node[2].app 	hops
field count 20018
field mean 4.0036966729943
field stddev 1.0000181455665
field sum 80146
field sqrsum 340898
field min 3
field max 5
statistic Basic.rack[1].node[3].app 	throughput
field count 20149
field mean 10075
field stddev 5816.6596227273
field sum 203001175
field sqrsum 2726914783775
field min 1
field max 20149
statistic Basic.rack[1].node[3].app 	"End-to-End Delay"
field count 20149
field mean 9.6855494286584e-006
field stddev 1.7263680356631e-006
field sum 0.19515413543804
field sqrsum 1.9502230481794e-006
field min 8.992e-006
field max 3.3700656e-005
statistic Basic.rack[1].node[3].app 	hops
field count 20149
field mean 3.9938954786838
field stddev 1.0000061828248
field sum 80473
field sqrsum 341549
field min 3
field max 5
statistic Basic.rack[1].node[4].app 	throughput
field count 20208
field mean 10104.5
field stddev 5833.6914556737
field sum 204191736
field sqrsum 2750939131304
field min 1
field max 20208
statistic Basic.rack[1].node[4].app 	"End-to-End Delay"
field count 20208
field mean 9.6707728274464e-006
field stddev 1.6516065093072e-006
field sum 0.19542697729704
field sqrsum 1.9450506384666e-006
field min 8.992e-006
field max 3.0263949e-005
statistic Basic.rack[1].node[4].app 	hops
field count 20208
field mean 4.0108867775139
field stddev 0.99996547940978
field sum 81052
field sqrsum 345296
field min 3
field max 5
statistic Basic.rack[1].node[5].app 	throughput
field count 20003
field mean 10002
field stddev 5774.5130530634
field sum 200070006
field sqrsum 2668066910014
field min 1
field max 20003
statistic Basic.rack[1].node[5].app 	"End-to-End Delay"
field count 20003
field mean 9.6919058867689e-006
field stddev 1.7326153086919e-006
field sum 0.19386719345304
field sqrsum 1.9389877135487e-006
field min 8.992e-006
field max 3.327223e-005
statistic Basic.rack[1].node[5].app 	hops
field count 20003
field mean 4.0004499325101
field stddev 1.0000248959657
field sum 80021
field sqrsum 340123
field min 3
field max 5
statistic Basic.rack[1].node[6].app 	throughput
field count 20168
field mean 10084.5
field stddev 5822.1444502863
field sum 203384196
field sqrsum 2734636104684
field min 1
field max 20168
statistic Basic.rack[1].node[6].app 	"End-to-End Delay"
field count 20168
field mean 9.6876427811403e-006
field stddev 1.6984468158072e-006
field sum 0.19538037961004
field sqrsum 1.950951504333e-006
field min 8.992e-006
field max 2.7523048e-005
statistic Basic.rack[1].node[6].app 	hops
field count 20168
field mean 4.0003966679889
field stddev 1.0000247139966
field sum 80680
field sqrsum 342920
field min 3
field max 5
statistic Basic.rack[1].node[7].app 	throughput
field count 19815
field mean 9908
field stddev 5720.2421277425
field sum 196327020
field sqrsum 2593545376540
field min 1
field max 19815
statistic Basic.rack[1].node[7].app 	"End-to-End Delay"
field count 19815
field mean 9.6956194182708e-006
field stddev 1.7420198052073e-006
field sum 0.19211869877304
field sqrsum 1.9228380047331e-006
field min 8.992e-006
field max 3.0815334e-005
statistic Basic.rack[1].node[7].app 	hops
field count 19815
field mean 3.9901589704769
field stddev 0.99997680903873
field sum 79065
field sqrsum 335295
field min 3
field max 5
statistic Basic.rack[1].node[8].app 	throughput
field count 20025
field mean 10013
field stddev 5780.8639060265
field sum 200510325
field sqrsum 2676879675525
field min 1
field max 20025
statistic Basic.rack[1].node[8].app 	"End-to-End Delay"
field count 20025
field mean 9.6906552890405e-006
field stddev 1.7019017239365e-006
field sum 0.19405537216304
field sqrsum 1.9385226234447e-006
field min 8.992e-006
field max 2.8250238e-005
statistic Basic.rack[1].node[8].app 	hops
field count 20025
field mean 4.0140324594257
field stddev 0.99992650745977
field sum 80381
field sqrsum 342673
field min 3
field max 5
statistic Basic.rack[1].node[9].app 	throughput
field count 20086
field mean 10043.5
field stddev 5798.4730892423
field sum 201733741
field sqrsum 2701416525731
field min 1
field max 20086
statistic Basic.rack[1].node[9].app 	"End-to-End Delay"
field count 20086
field mean 9.6840118798684e-006
field stddev 1.69834576916e-006
field sum 0.19451306261904
field sqrsum 1.9415995483847e-006
field min 8.992e-006
field max 3.1065008e-005
statistic Basic.rack[1].node[9].app 	hops
field count 20086
field mean 4.0044807328488
field stddev 1.0000148551061
field sum 80434
field sqrsum 342182
field min 3
field max 5
statistic Basic.rack[1].eps.queue[0] 	dropsum
field count 0
field mean nan
field stddev nan
field sum 0
field sqrsum 0
field min nan
field max nan
statistic Basic.rack[1].eps.queue[1] 	dropsum
field count 0
field mean nan
field stddev nan
field sum 0
field sqrsum 0
field min nan
field max nan
statistic Basic.rack[1].eps.queue[2] 	dropsum
field count 0
field mean nan
field stddev nan
field sum 0
field sqrsum 0
field min nan
field max nan
statistic Basic.rack[1].eps.queue[3] 	dropsum
field count 0
field mean nan
field stddev nan
field sum 0
field sqrsum 0
field min nan
field max nan
statistic Basic.rack[2].node[0].app 	throughput
field count 20021
field mean 10011
field stddev 5779.7092054878
field sum 200430231
field sqrsum 2675275913311
field min 1
field max 20021
statistic Basic.rack[2].node[0].app 	"End-to-End Delay"
field count 20021
field mean 7.4110279751774e-006
field stddev 3.9568657755034e-006
field sum 0.14837619109103
field sqrsum 1.4130689740682e-006
field min 8.496e-007
field max 2.6204997e-005
statistic Basic.rack[2].node[0].app 	hops
field count 20021
field mean 4.2592278107987
field stddev 0.82658764566245
field sum 85274
field sqrsum 376880
field min 3
field max 5
statistic Basic.rack[2].node[1].app 	throughput
field count 20072
field mean 10036.5
field stddev 5794.4316373567
field sum 201452628
field sqrsum 2695771917020
field min 1
field max 20072
statistic Basic.rack[2].node[1].app 	"End-to-End Delay"
field count 20072
field mean 7.3897520267052e-006
field stddev 3.9519821597279e-006
field sum 0.14832710268003
field sqrsum 1.4095726570335e-006
field min 8.496e-007
field max 2.5082829e-005
statistic Basic.rack[2].node[1].app 	hops
field count 20072
field mean 4.2438222399362
field stddev 0.83047474639929
field sum 85182
field sqrsum 375340
field min 3
field max 5
statistic Basic.rack[2].node[2].app 	throughput
field count 19839
field mean 9920
field stddev 5727.170330975
field sum 196802880
field sqrsum 2602980491840
field min 1
field max 19839
statistic Basic.rack[2].node[2].app 	"End-to-End Delay"
field count 19839
field mean 7.4170884439249e-006
field stddev 3.9852319433918e-006
field sum 0.14714761763903
field sqrsum 1.406475471264e-006
field min 8.496e-007
field max 2.882315e-005
statistic Basic.rack[2].node[2].app 	hops
field count 19839
field mean 4.2486012399819
field stddev 0.829498816966
field sum 84288
field sqrsum 371756
field min 3
field max 5
statistic Basic.rack[2].node[3].app 	throughput
field count 19969
field mean 9985
field stddev 5764.6980984841
field sum 199390465
field sqrsum 2654485260545
field min 1
field max 19969
statistic Basic.rack[2].node[3].app 	"End-to-End Delay"
field count 19969
field mean 7.4013720494779e-006
field stddev 3.9701911139811e-006
field sum 0.14779799845602
field sqrsum 1.4086519270125e-006
field min 8.496e-007
field max 2.7802347e-005
statistic Basic.rack[2].node[3].app 	hops
field count 19969
field mean 4.2534428363964
field stddev 0.82765470453916
field sum 84937
field sqrsum 374953
field min 3
field max 5
statistic Basic.rack[2].node[4].app 	throughput
field count 20047
field mean 10024
field stddev 5787.2147589896
field sum 200951128
field sqrsum 2685711825720
field min 1
field max 20047
statistic Basic.rack[2].node[4].app 	"End-to-End Delay"
field count 20047
field mean 7.3760579922196e-006
field stddev 3.9590222150616e-006
field sum 0.14786783457003
field sqrsum 1.4048798583769e-006
field min 8.496e-007
field max 2.3944343e-005
statistic Basic.rack[2].node[4].app 	hops
field count 20047
field mean 4.2575946525665
field stddev 0.82524100024044
field sum 85352
field sqrsum 377046
field min 3
field max 5
statistic Basic.rack[2].node[5].app 	throughput
field count 19930
field mean 9965.5
field stddev 5753.4397682314
field sum 198612415
field sqrsum 2638963158105
field min 1
field max 19930
statistic Basic.rack[2].node[5].app 	"End-to-End Delay"
field count 19930
field mean 7.4191949448081e-006
field stddev 3.9696258121659e-006
field sum 0.14786455525002
field sqrsum 1.4110757296343e-006
field min 8.496e-007
field max 2.4671398e-005
statistic Basic.rack[2].node[5].app 	hops
field count 19930
field mean 4.2551430005018
field stddev 0.82801800776773
field sum 84805
field sqrsum 374521
field min 3
field max 5
statistic Basic.rack[2].node[6].app 	throughput
field count 19886
field mean 9943.5
field stddev 5740.7380623052
field sum 197736441
field sqrsum 2621523822631
field min 1
field max 19886
statistic Basic.rack[2].node[6].app 	"End-to-End Delay"
field count 19886
field mean 7.4148952803996e-006
field stddev 3.9478248247319e-006
field sum 0.14745260754603
field sqrsum 1.4032597488136e-006
field min 8.496e-007
field max 2.8276163e-005
statistic Basic.rack[2].node[6].app 	hops
field count 19886
field mean 4.2445439002313
field stddev 0.83184611946317
field sum 84407
field sqrsum 372029
field min 3
field max 5
statistic Basic.rack[2].node[7].app 	throughput
field count 19930
field mean 9965.5
field stddev 5753.4397682314
field sum 198612415
field sqrsum 2638963158105
field min 1
field max 19930
statistic Basic.rack[2].node[7].app 	"End-to-End Delay"
field count 19930
field mean 7.4115133849988e-006
field stddev 3.9952999313297e-006
field sum 0.14771146176303
field sqrsum 1.4128805748706e-006
field min 8.496e-007
field max 3.0974593e-005
statistic Basic.rack[2].node[7].app 	hops
field count 19930
field mean 4.2439538384345
field stddev 0.83038707748621
field sum 84582
field sqrsum 372704
field min 3
field max 5
statistic Basic.rack[2].node[8].app 	throughput
field count 19717
field mean 9859
field stddev 5691.9519645432
field sum 194389903
field sqrsum 2555255274935
field min 1
field max 19717
statistic Basic.rack[2].node[8].app 	"End-to-End Delay"
field count 19717
field mean 7.384968448244e-006
field stddev 3.9501643355722e-006
field sum 0.14560942289403
field sqrsum 1.382965480689e-006
field min 8.496e-007
field max 2.4069368e-005
statistic Basic.rack[2].node[8].app 	hops
field count 19717
field mean 4.2420753664351
field stddev 0.83083133049767
field sum 83641
field sqrsum 368421
field min 3
field max 5
statistic Basic.rack[2].node[9].app 	throughput
field count 19920
field mean 9960.5
field stddev 5750.5530168845
field sum 198413160
field sqrsum 2634992902520
field min 1
field max 19920
statistic Basic.rack[2].node[9].app 	"End-to-End Delay"
field count 19920
field mean 7.4132252823307e-006
field stddev 3.9335949238312e-006
field sum 0.14767144762403
field sqrsum 1.4029317628096e-006
field min 8.496e-007
field max 2.6495486e-005
statistic Basic.rack[2].node[9].app 	hops
field count 19920
field mean 4.2424698795181
field stddev 0.83285822203381
field sum 84510
field sqrsum 372348
field min 3
field max 5
statistic Basic.rack[2].eps.queue[0] 	dropsum
field count 0
field mean nan
field stddev nan
field sum 0
field sqrsum 0
field min nan
field max nan
statistic Basic.rack[2].eps.queue[1] 	dropsum
field count 0
field mean nan
field stddev nan
field sum 0
field sqrsum 0
field min nan
field max nan
statistic Basic.rack[2].eps.queue[2] 	dropsum
field count 0
field mean nan
field stddev nan
field sum 0
field sqrsum 0
field min nan
field max nan
statistic Basic.rack[2].eps.queue[3] 	dropsum
field count 0
field mean nan
field stddev nan
field sum 0
field sqrsum 0
field min nan
field max nan
statistic Basic.rack[3].node[0].app 	throughput
field count 20082
field mean 10041.5
field stddev 5797.3183887035
field sum 201653403
field sqrsum 2699802977165
field min 1
field max 20082
statistic Basic.rack[3].node[0].app 	"End-to-End Delay"
field count 20082
field mean 7.3988974658912e-006
field stddev 3.9483109828323e-006
field sum 0.14858465891003
field sqrsum 1.4124085705518e-006
field min 8.496e-007
field max 3.2854654e-005
statistic Basic.rack[3].node[0].app 	hops
field count 20082
field mean 4.2511702021711
field stddev 0.82889820392551
field sum 85372
field sqrsum 376728
field min 3
field max 5
statistic Basic.rack[3].node[1].app 	throughput
field count 20028
field mean 10014.5
field stddev 5781.7299314306
field sum 200570406
field sqrsum 2678082917714
field min 1
field max 20028
statistic Basic.rack[3].node[1].app 	"End-to-End Delay"
field count 20028
field mean 7.3808582675767e-006
field stddev 3.9759687497874e-006
field sum 0.14782382938303
field sqrsum 1.4076601080747e-006
field min 8.496e-007
field max 2.8549026e-005
statistic Basic.rack[3].node[1].app 	hops
field count 20028
field mean 4.2459057319752
field stddev 0.82841369496984
field sum 85037
field sqrsum 374803
field min 3
field max 5
statistic Basic.rack[3].node[2].app 	throughput
field count 20062
field mean 10031.5
field stddev 5791.5448860098
field sum 201251953
field sqrsum 2691744871375
field min 1
field max 20062
statistic Basic.rack[3].node[2].app 	"End-to-End Delay"
field count 20062
field mean 7.3928485197899e-006
field stddev 3.975720428313e-006
field sum 0.14831532700403
field sqrsum 1.4135639917143e-006
field min 8.496e-007
field max 3.0896007e-005
statistic Basic.rack[3].node[2].app 	hops
field count 20062
field mean 4.2605423188117
field stddev 0.82461100881881
field sum 85475
field sqrsum 377811
field min 3
field max 5
statistic Basic.rack[3].node[3].app 	throughput
field count 20066
field mean 10033.5
field stddev 5792.6995865486
field sum 201332211
field sqrsum 2693355208021
field min 1
field max 20066
statistic Basic.rack[3].node[3].app 	"End-to-End Delay"
field count 20066
field mean 7.4252399244007e-006
field stddev 3.9438516439642e-006
field sum 0.14899486432302
field sqrsum 1.4184129386703e-006
field min 8.496e-007
field max 2.9294291e-005
statistic Basic.rack[3].node[3].app 	hops
field count 20066
field mean 4.2502242599422
field stddev 0.83059560563261
field sum 85285
field sqrsum 376323
field min 3
field max 5
statistic Basic.rack[3].node[4].app 	throughput
field count 20097
field mean 10049
field stddev 5801.6485157238
field sum 201954753
field sqrsum 2705857098945
field min 1
field max 20097
statistic Basic.rack[3].node[4].app 	"End-to-End Delay"
field count 20097
field mean 7.3934934055842e-006
field stddev 3.9929205064873e-006
field sum 0.14858703697203
field sqrsum 1.4189761291909e-006
field min 8.496e-007
field max 2.8284354e-005
statistic Basic.rack[3].node[4].app 	hops
field count 20097
field mean 4.2534209085933
field stddev 0.82664160985353
field sum 85481
field sqrsum 377319
field min 3
field max 5
statistic Basic.rack[3].node[5].app 	throughput
field count 20127
field mean 10064
field stddev 5810.3087697643
field sum 202558128
field sqrsum 2717992480880
field min 1
field max 20127
statistic Basic.rack[3].node[5].app 	"End-to-End Delay"
field count 20127
field mean 7.3942124748361e-006
field stddev 3.9671867576482e-006
field sum 0.14882331448103
field sqrsum 1.4171856838003e-006
field min 8.496e-007
field max 3.0293441e-005
statistic Basic.rack[3].node[5].app 	hops
field count 20127
field mean 4.2516023252348
field stddev 0.82775459643392
field sum 85572
field sqrsum 377608
field min 3
field max 5
statistic Basic.rack[3].node[6].app 	throughput
field count 20210
field mean 10105.5
field stddev 5834.268805943
field sum 204232155
field sqrsum 2751755979085
field min 1
field max 20210
statistic Basic.rack[3].node[6].app 	"End-to-End Delay"
field count 20210
field mean 7.392117974222e-006
field stddev 3.9577134463168e-006
field sum 0.14939470425903
field sqrsum 1.420886863676e-006
field min 8.496e-007
field max 2.5971345e-005
statistic Basic.rack[3].node[6].app 	hops
field count 20210
field mean 4.2501731815933
field stddev 0.82848265642251
field sum 85896
field sqrsum 378944
field min 3
field max 5
statistic Basic.rack[3].node[7].app 	throughput
field count 19944
field mean 9972.5
field stddev 5757.481220117
field sum 198891540
field sqrsum 2644528213020
field min 1
field max 19944
statistic Basic.rack[3].node[7].app 	"End-to-End Delay"
field count 19944
field mean 7.4372647304465e-006
field stddev 3.9447587772824e-006
field sum 0.14832880778403
field sqrsum 1.413496062917e-006
field min 8.496e-007
field max 2.3468462e-005
statistic Basic.rack[3].node[7].app 	hops
field count 19944
field mean 4.2571700762134
field stddev 0.82907038507583
field sum 84905
field sqrsum 375163
field min 3
field max 5
statistic Basic.rack[3].node[8].app 	throughput
field count 20018
field mean 10009.5
field stddev 5778.8431800837
field sum 200370171
field sqrsum 2674073512109
field min 1
field max 20018
statistic Basic.rack[3].node[8].app 	"End-to-End Delay"
field count 20018
field mean 7.3861258651726e-006
field stddev 3.9568111391314e-006
field sum 0.14785546756902
field sqrsum 1.4054723391585e-006
field min 8.496e-007
field max 3.0665824e-005
statistic Basic.rack[3].node[8].app 	hops
field count 20018
field mean 4.24892596663
field stddev 0.82864132526388
field sum 85055
field sqrsum 375137
field min 3
field max 5
statistic Basic.rack[3].node[9].app 	throughput
field count 20411
field mean 10206
field stddev 5892.2925080142
field sum 208314666
field sqrsum 2834676536706
field min 1
field max 20411
statistic Basic.rack[3].node[9].app 	"End-to-End Delay"
field count 20411
field mean 7.4133109905456e-006
field stddev 3.9492414189456e-006
field sum 0.15131309062803
field sqrsum 1.4400557216604e-006
field min 8.496e-007
field max 2.5805003e-005
statistic Basic.rack[3].node[9].app 	hops
field count 20411
field mean 4.2413894468669
field stddev 0.83245280201281
field sum 86571
field sqrsum 381325
field min 3
field max 5
statistic Basic.rack[3].eps.queue[0] 	dropsum
field count 0
field mean nan
field stddev nan
field sum 0
field sqrsum 0
field min nan
field max nan
statistic Basic.rack[3].eps.queue[1] 	dropsum
field count 0
field mean nan
field stddev nan
field sum 0
field sqrsum 0
field min nan
field max nan
statistic Basic.rack[3].eps.queue[2] 	dropsum
field count 0
field mean nan
field stddev nan
field sum 0
field sqrsum 0
field min nan
field max nan
statistic Basic.rack[3].eps.queue[3] 	dropsum
field count 0
field mean nan
field stddev nan
field sum 0
field sqrsum 0
field min nan
field max nan
statistic Basic.rack[4].node[0].app 	throughput
field count 20029
field mean 10015
field stddev 5782.0186065652
field sum 200590435
field sqrsum 2678484078555
field min 1
field max 20029
statistic Basic.rack[4].node[0].app 	"End-to-End Delay"
field count 20029
field mean 9.6913827989434e-006
field stddev 1.7205732348585e-006
field sum 0.19410870608004
field sqrsum 1.9404721107827e-006
field min 8.992e-006
field max 3.3996486e-005
statistic Basic.rack[4].node[0].app 	hops
field count 20029
field mean 3.9991512307155
field stddev 1.0000246045236
field sum 80099
field sqrsum 340357
field min 3
field max 5
statistic Basic.rack[4].node[1].app 	throughput
field count 19982
field mean 9991.5
field stddev 5768.450875235
field sum 199650153
field sqrsum 2659672788215
field min 1
field max 19982
statistic Basic.rack[4].node[1].app 	"End-to-End Delay"
field count 19982
field mean 9.6968724885415e-006
field stddev 1.73113487432e-006
field sum 0.19376290606604
field sqrsum 1.9387738124622e-006
field min 8.992e-006
field max 2.928503e-005
statistic Basic.rack[4].node[1].app 	hops
field count 19982
field mean 4.0007006305675
field stddev 1.0000247780117
field sum 79942
field sqrsum 339806
field min 3
field max 5
statistic Basic.rack[4].node[2].app 	throughput
field count 19920
field mean 9960.5
field stddev 5750.5530168845
field sum 198413160
field sqrsum 2634992902520
field min 1
field max 19920
statistic Basic.rack[4].node[2].app 	"End-to-End Delay"
field count 19920
field mean 9.6952830209356e-006
field stddev 1.7414346607823e-006
field sum 0.19313003777704
field sqrsum 1.932856629479e-006
field min 8.992e-006
field max 3.9118029e-005
statistic Basic.rack[4].node[2].app 	hops
field count 19920
field mean 3.999297188755
field stddev 1.0000248543686
field sum 79666
field sqrsum 338528
field min 3
field max 5
statistic Basic.rack[4].node[3].app 	throughput
field count 20106
field mean 10053.5
field stddev 5804.2465919359
field sum 202135671
field sqrsum 2709493912641
field min 1
field max 20106
statistic Basic.rack[4].node[3].app 	"End-to-End Delay"
field count 20106
field mean 9.7024637027274e-006
field stddev 1.7746939544385e-006
field sum 0.19507773520704
field sqrsum 1.9560561192513e-006
field min 8.992e-006
field max 3.7485364e-005
statistic Basic.rack[4].node[3].app 	hops
field count 20106
field mean 4.0009947279419
field stddev 1.000024374372
field sum 80444
field sqrsum 341962
field min 3
field max 5
statistic Basic.rack[4].node[4].app 	throughput
field count 20096
field mean 10048.5
field stddev 5801.3598405891
field sum 201934656
field sqrsum 2705453209536
field min 1
field max 20096
statistic Basic.rack[4].node[4].app 	"End-to-End Delay"
field count 20096
field mean 9.6594477312419e-006
field stddev 1.6539549965539e-006
field sum 0.19411626160704
field sqrsum 1.9300271042672e-006
field min 8.992e-006
field max 2.9185483e-005
statistic Basic.rack[4].node[4].app 	hops
field count 20096
field mean 3.9885549363057
field stddev 0.99995938298579
field sum 80154
field sqrsum 339792
field min 3
field max 5
statistic Basic.rack[4].node[5].app 	throughput
field count 19843
field mean 9922
field stddev 5728.3250315137
field sum 196882246
field sqrsum 2604555232334
field min 1
field max 19843
statistic Basic.rack[4].node[5].app 	"End-to-End Delay"
field count 19843
field mean 9.6769001045729e-006
field stddev 1.713784716309e-006
field sum 0.19201872877504
field sqrsum 1.9164231624677e-006
field min 8.992e-006
field max 3.3069983e-005
statistic Basic.rack[4].node[5].app 	hops
field count 19843
field mean 3.9812024391473
field stddev 0.99984850454618
field sum 78999
field sqrsum 334347
field min 3
field max 5
statistic Basic.rack[4].node[6].app 	throughput
field count 19954
field mean 9977.5
field stddev 5760.3679714639
field sum 199091035
field sqrsum 2648508038605
field min 1
field max 19954
statistic Basic.rack[4].node[6].app 	"End-to-End Delay"
field count 19954
field mean 9.6952366951507e-006
field stddev 1.7439897579203e-006
field sum 0.19345875301504
field sqrsum 1.9363154562311e-006
field min 8.992e-006
field max 2.9757752e-005
statistic Basic.rack[4].node[6].app 	hops
field count 19954
field mean 4.0003006915907
field stddev 1.0000250133656
field sum 79822
field sqrsum 339266
field min 3
field max 5
statistic Basic.rack[4].node[7].app 	throughput
field count 19931
field mean 9966
field stddev 5753.7284433661
field sum 198632346
field sqrsum 2639360402866
field min 1
field max 19931
statistic Basic.rack[4].node[7].app 	"End-to-End Delay"
field count 19931
field mean 9.7030179111954e-006
field stddev 1.7424407546767e-006
field sum 0.19339084998804
field sqrsum 1.9369843499815e-006
field min 8.992e-006
field max 3.0960425e-005
statistic Basic.rack[4].node[7].app 	hops
field count 19931
field mean 4.0025588279564
field stddev 1.0000218136049
field sum 79775
field sqrsum 339235
field min 3
field max 5
statistic Basic.rack[4].node[8].app 	throughput
field count 20099
field mean 10050
field stddev 5802.2258659932
field sum 201994950
field sqrsum 2706664998350
field min 1
field max 20099
statistic Basic.rack[4].node[8].app 	"End-to-End Delay"
field count 20099
field mean 9.6705822149379e-006
field stddev 1.6648367953962e-006
field sum 0.19436903193804
field sqrsum 1.9353669592932e-006
field min 8.992e-006
field max 3.0201674e-005
statistic Basic.rack[4].node[8].app 	hops
field count 20099
field mean 3.9947758594955
field stddev 1.0000112315333
field sum 80291
field sqrsum 340843
field min 3
field max 5
statistic Basic.rack[4].node[9].app 	throughput
field count 20041
field mean 10021
field stddev 5785.4827081815
field sum 200830861
field sqrsum 2683301133821
field min 1
field max 20041
statistic Basic.rack[4].node[9].app 	"End-to-End Delay"
field count 20041
field mean 9.7016135837552e-006
field stddev 1.7403297590765e-006
field sum 0.19443003783204
field sqrsum 1.9469811994347e-006
field min 8.992e-006
field max 3.5324328e-005
statistic Basic.rack[4].node[9].app 	hops
field count 20041
field mean 3.9971558305474
field stddev 1.0000209050295
field sum 80107
field sqrsum 340241
field min 3
field max 5
statistic Basic.rack[4].eps.queue[0] 	dropsum
field count 0
field mean nan
field stddev nan
field sum 0
field sqrsum 0
field min nan
field max nan
statistic Basic.rack[4].eps.queue[1] 	dropsum
field count 0
field mean nan
field stddev nan
field sum 0
field sqrsum 0
field min nan
field max nan
statistic Basic.rack[4].eps.queue[2] 	dropsum
field count 0
field mean nan
field stddev nan
field sum 0
field sqrsum 0
field min nan
field max nan
statistic Basic.rack[4].eps.queue[3] 	dropsum
field count 0
field mean nan
field stddev nan
field sum 0
field sqrsum 0
field min nan
field max nan
statistic Basic.rack[5].node[0].app 	throughput
field count 19836
field mean 9918.5
field stddev 5726.3043055709
field sum 196743366
field sqrsum 2601799853106
field min 1
field max 19836
statistic Basic.rack[5].node[0].app 	"End-to-End Delay"
field count 19836
field mean 9.6788286680297e-006
field stddev 1.687564739054e-006
field sum 0.19198924545904
field sqrsum 1.9147186085388e-006
field min 8.992e-006
field max 3.7323363e-005
statistic Basic.rack[5].node[0].app 	hops
field count 19836
field mean 3.997781810849
field stddev 1.0000227474014
field sum 79300
field sqrsum 336860
field min 3
field max 5
statistic Basic.rack[5].node[1].app 	throughput
field count 20012
field mean 10006.5
field stddev 5777.1111292756
field sum 200250078
field sqrsum 2671669790650
field min 1
field max 20012
statistic Basic.rack[5].node[1].app 	"End-to-End Delay"
field count 20012
field mean 9.6865741469137e-006
field stddev 1.6741165769215e-006
field sum 0.19384772182804
field sqrsum 1.9338044862895e-006
field min 8.992e-006
field max 2.9585834e-005
statistic Basic.rack[5].node[1].app 	hops
field count 20012
field mean 3.9962022786328
field stddev 1.0000177743954
field sum 79972
field sqrsum 339596
field min 3
field max 5
statistic Basic.rack[5].node[2].app 	throughput
field count 20006
field mean 10003.5
field stddev 5775.3790784675
field sum 200130021
field sqrsum 2669267510091
field min 1
field max 20006
statistic Basic.rack[5].node[2].app 	"End-to-End Delay"
field count 20006
field mean 9.6780701543556e-006
field stddev 1.6926236562062e-006
field sum 0.19361947150804
field sqrsum 1.9311766502092e-006
field min 8.992e-006
field max 3.8153706e-005
statistic Basic.rack[5].node[2].app 	hops
field count 20006
field mean 4.0087973607918
field stddev 0.99998629494484
field sum 80200
field sqrsum 341510
field min 3
field max 5
statistic Basic.rack[5].node[3].app 	throughput
field count 19994
field mean 9997.5
field stddev 5771.9149768513
field sum 199890015
field sqrsum 2664467269945
field min 1
field max 19994
statistic Basic.rack[5].node[3].app 	"End-to-End Delay"
field count 19994
field mean 9.6776937657316e-006
field stddev 1.6914407644623e-006
field sum 0.19349580915204
field sqrsum 1.9297925963165e-006
field min 8.992e-006
field max 2.7710803e-005
statistic Basic.rack[5].node[3].app 	hops
field count 19994
field mean 3.9977993398019
field stddev 1.0000225869242
field sum 79932
field sqrsum 339546
field min 3
field max 5
statistic Basic.rack[5].node[4].app 	throughput
field count 20020
field mean 10010.5
field stddev 5779.4205303531
field sum 200410210
field sqrsum 2674875072870
field min 1
field max 20020
statistic Basic.rack[5].node[4].app 	"End-to-End Delay"
field count 20020
field mean 9.7079729528989e-006
field stddev 1.7609340565911e-006
field sum 0.19435361851704
field sqrsum 1.948856363781e-006
field min 8.992e-006
field max 3.14998e-005
statistic Basic.rack[5].node[4].app 	hops
field count 20020
field mean 4.0011988011988
field stddev 1.0000242573803
field sum 80104
field sqrsum 340532
field min 3
field max 5
statistic Basic.rack[5].node[5].app 	throughput
field count 19975
field mean 9988
field stddev 5766.4301492923
field sum 199510300
field sqrsum 2656878665100
field min 1
field max 19975
statistic Basic.rack[5].node[5].app 	"End-to-End Delay"
field count 19975
field mean 9.6873175044324e-006
field stddev 1.7182020134695e-006
field sum 0.19350416715104
field sqrsum 1.9335039111325e-006
field min 8.992e-006
field max 3.6135643e-005
statistic Basic.rack[5].node[5].app 	hops
field count 19975
field mean 3.9941426783479
field stddev 1.000007877544
field sum 79783
field sqrsum 338639
field min 3
field max 5
statistic Basic.rack[5].node[6].app 	throughput
field count 20017
field mean 10009
field stddev 5778.554504949
field sum 200350153
field sqrsum 2673672791785
field min 1
field max 20017
statistic Basic.rack[5].node[6].app 	"End-to-End Delay"
field count 20017
field mean 9.6998171666103e-006
field stddev 1.752773466399e-006
field sum 0.19416124022404
field sqrsum 1.9448219829429e-006
field min 8.992e-006
field max 3.2498794e-005
statistic Basic.rack[5].node[6].app 	hops
field count 20017
field mean 3.9855622720687
field stddev 0.99992074767458
field sum 79779
field sqrsum 337977
field min 3
field max 5
statistic Basic.rack[5].node[7].app 	throughput
field count 19848
field mean 9924.5
field stddev 5729.7684071872
field sum 196981476
field sqrsum 2606524550924
field min 1
field max 19848
statistic Basic.rack[5].node[7].app 	"End-to-End Delay"
field count 19848
field mean 9.6935061564912e-006
field stddev 1.7156751113275e-006
field sum 0.19239671019404
field sqrsum 1.9234191547207e-006
field min 8.992e-006
field max 3.2211617e-005
statistic Basic.rack[5].node[7].app 	hops
field count 19848
field mean 3.9959693671906
field stddev 1.000017069169
field sum 79312
field sqrsum 336776
field min 3
field max 5
statistic Basic.rack[5].node[8].app 	throughput
field count 19900
field mean 9950.5
field stddev 5744.7795141908
field sum 198014950
field sqrsum 2627064341650
field min 1
field max 19900
statistic Basic.rack[5].node[8].app 	"End-to-End Delay"
field count 19900
field mean 9.6827633593988e-006
field stddev 1.6842591244537e-006
field sum 0.19268699085204
field sqrsum 1.9221906012124e-006
field min 8.992e-006
field max 2.9308501e-005
statistic Basic.rack[5].node[8].app 	hops
field count 19900
field mean 4.0062311557789
field stddev 1.0000057122477
field sum 79724
field sqrsum 339292
field min 3
field max 5
statistic Basic.rack[5].node[9].app 	throughput
field count 19937
field mean 9969
field stddev 5755.4604941742
field sum 198751953
field sqrsum 2641744708625
field min 1
field max 19937
statistic Basic.rack[5].node[9].app 	"End-to-End Delay"
field count 19937
field mean 9.7001433629953e-006
field stddev 1.7466553052776e-006
field sum 0.19339175822804
field sqrsum 1.9367486236384e-006
field min 8.992e-006
field max 3.5965163e-005
statistic Basic.rack[5].node[9].app 	hops
field count 19937
field mean 4.0015548979285
field stddev 1.0000238710575
field sum 79779
field sqrsum 339177
field min 3
field max 5
statistic Basic.rack[5].eps.queue[0] 	dropsum
field count 0
field mean nan
field stddev nan
field sum 0
field sqrsum 0
field min nan
field max nan
statistic Basic.rack[5].eps.queue[1] 	dropsum
field count 0
field mean nan
field stddev nan
field sum 0
field sqrsum 0
field min nan
field max nan
statistic Basic.rack[5].eps.queue[2] 	dropsum
field count 0
field mean nan
field stddev nan
field sum 0
field sqrsum 0
field min nan
field max nan
statistic Basic.rack[5].eps.queue[3] 	dropsum
field count 0
field mean nan
field stddev nan
field sum 0
field sqrsum 0
field min nan
field max nan
statistic Basic.rack[6].node[0].app 	throughput
field count 19819
field mean 9910
field stddev 5721.3968282812
field sum 196406290
field sqrsum 2595116309770
field min 1
field max 19819
statistic Basic.rack[6].node[0].app 	"End-to-End Delay"
field count 19819
field mean 7.4333378682086e-006
field stddev 3.9566190475908e-006
field sum 0.14732132321003
field sqrsum 1.4053366765265e-006
field min 8.496e-007
field max 2.9048484e-005
statistic Basic.rack[6].node[0].app 	hops
field count 19819
field mean 4.257984762097
field stddev 0.82833572312729
field sum 84389
field sqrsum 372925
field min 3
field max 5
statistic Basic.rack[6].node[1].app 	throughput
field count 19911
field mean 9956
field stddev 5747.9549406724
field sum 198233916
field sqrsum 2631423078956
field min 1
field max 19911
statistic Basic.rack[6].node[1].app 	"End-to-End Delay"
field count 19911
field mean 7.415708165337e-006
field stddev 3.9481243713298e-006
field sum 0.14765416528002
field sqrsum 1.4053110283982e-006
field min 8.496e-007
field max 2.6596572e-005
statistic Basic.rack[6].node[1].app 	hops
field count 19911
field mean 4.2544824468887
field stddev 0.82877486513384
field sum 84711
field sqrsum 374077
field min 3
field max 5
statistic Basic.rack[6].node[2].app 	throughput
field count 20150
field mean 10075.5
field stddev 5816.948297862
field sum 203021325
field sqrsum 2727320806275
field min 1
field max 20150
statistic Basic.rack[6].node[2].app 	"End-to-End Delay"
field count 20150
field mean 7.3568927271973e-006
field stddev 3.9959369492438e-006
field sum 0.14824138845303
field sqrsum 1.4123253939296e-006
field min 8.496e-007
field max 2.5202164e-005
statistic Basic.rack[6].node[2].app 	hops
field count 20150
field mean 4.2466501240695
field stddev 0.82656970304236
field sum 85570
field sqrsum 377152
field min 3
field max 5
statistic Basic.rack[6].node[3].app 	throughput
field count 20191
field mean 10096
field stddev 5828.7839783841
field sum 203848336
field sqrsum 2744002450896
field min 1
field max 20191
statistic Basic.rack[6].node[3].app 	"End-to-End Delay"
field count 20191
field mean 7.4311994827411e-006
field stddev 3.9612880330935e-006
field sum 0.15004334875603
field sqrsum 1.4318195558345e-006
field min 8.496e-007
field max 3.0979835e-005
statistic Basic.rack[6].node[3].app 	hops
field count 20191
field mean 4.2515972462979
field stddev 0.82991033454715
field sum 85844
field sqrsum 378880
field min 3
field max 5
statistic Basic.rack[6].node[4].app 	throughput
field count 19940
field mean 9970.5
field stddev 5756.3265195783
field sum 198811770
field sqrsum 2642937399790
field min 1
field max 19940
statistic Basic.rack[6].node[4].app 	"End-to-End Delay"
field count 19940
field mean 7.4069522485469e-006
field stddev 3.9887859753312e-006
field sum 0.14769462783603
field sqrsum 1.4112047916614e-006
field min 8.496e-007
field max 2.52655e-005
statistic Basic.rack[6].node[4].app 	hops
field count 19940
field mean 4.2497492477432
field stddev 0.82819348335509
field sum 84740
field sqrsum 373800
field min 3
field max 5
statistic Basic.rack[6].node[5].app 	throughput
field count 19749
field mean 9875
field stddev 5701.1895688532
field sum 195021375
field sqrsum 2567716430375
field min 1
field max 19749
statistic Basic.rack[6].node[5].app 	"End-to-End Delay"
field count 19749
field mean 7.4369271335271e-006
field stddev 3.9754071306453e-006
field sum 0.14687187396003
field sqrsum 1.4043700885057e-006
field min 8.496e-007
field max 2.6333301e-005
statistic Basic.rack[6].node[5].app 	hops
field count 19749
field mean 4.2500886120816
field stddev 0.83022616701733
field sum 83935
field sqrsum 370343
field min 3
field max 5
statistic Basic.rack[6].node[6].app 	throughput
field count 19872
field mean 9936.5
field stddev 5736.6966104196
field sum 197458128
field sqrsum 2615991099120
field min 1
field max 19872
statistic Basic.rack[6].node[6].app 	"End-to-End Delay"
field count 19872
field mean 7.3721381025576e-006
field stddev 3.9872371336482e-006
field sum 0.14649912837403
field sqrsum 1.3959221557417e-006
field min 8.496e-007
field max 2.4342129e-005
statistic Basic.rack[6].node[6].app 	hops
field count 19872
field mean 4.2569947665056
field stddev 0.82426244101014
field sum 84595
field sqrsum 373621
field min 3
field max 5
statistic Basic.rack[6].node[7].app 	throughput
field count 19943
field mean 9972
field stddev 5757.1925449823
field sum 198871596
field sqrsum 2644130449884
field min 1
field max 19943
statistic Basic.rack[6].node[7].app 	"End-to-End Delay"
field count 19943
field mean 7.3793499238843e-006
field stddev 3.9530873887313e-006
field sum 0.14716637553203
field sqrsum 1.3976238199451e-006
field min 8.496e-007
field max 2.7086583e-005
statistic Basic.rack[6].node[7].app 	hops
field count 19943
field mean 4.249160106303
field stddev 0.82827270572358
field sum 84741
field sqrsum 373759
field min 3
field max 5
statistic Basic.rack[6].node[8].app 	throughput
field count 19905
field mean 9953
field stddev 5746.2228898643
field sum 198114465
field sqrsum 2629044988705
field min 1
field max 19905
statistic Basic.rack[6].node[8].app 	"End-to-End Delay"
field count 19905
field mean 7.409046260991e-006
field stddev 3.9521209558647e-006
field sum 0.14747706582503
field sqrsum 1.4035501551638e-006
field min 8.496e-007
field max 2.8984995e-005
statistic Basic.rack[6].node[8].app 	hops
field count 19905
field mean 4.2621451896508
field stddev 0.82588153235584
field sum 84838
field sqrsum 375168
field min 3
field max 5
statistic Basic.rack[6].node[9].app 	throughput
field count 19860
field mean 9930.5
field stddev 5733.2325088034
field sum 197219730
field sqrsum 2611254965110
field min 1
field max 19860
statistic Basic.rack[6].node[9].app 	"End-to-End Delay"
field count 19860
field mean 7.4374613252782e-006
field stddev 3.9613133402631e-006
field sum 0.14770798192003
field sqrsum 1.4101998980835e-006
field min 8.496e-007
field max 2.6158805e-005
statistic Basic.rack[6].node[9].app 	hops
field count 19860
field mean 4.2473313192346
field stddev 0.83164381172138
field sum 84352
field sqrsum 372006
field min 3
field max 5
statistic Basic.rack[6].eps.queue[0] 	dropsum
field count 0
field mean nan
field stddev nan
field sum 0
field sqrsum 0
field min nan
field max nan
statistic Basic.rack[6].eps.queue[1] 	dropsum
field count 0
field mean nan
field stddev nan
field sum 0
field sqrsum 0
field min nan
field max nan
statistic Basic.rack[6].eps.queue[2] 	dropsum
field count 0
field mean nan
field stddev nan
field sum 0
field sqrsum 0
field min nan
field max nan
statistic Basic.rack[6].eps.queue[3] 	dropsum
field count 0
field mean nan
field stddev nan
field sum 0
field sqrsum 0
field min nan
field max nan
statistic Basic.rack[7].node[0].app 	throughput
field count 19806
field mean 9903.5
field stddev 5717.6440515303
field sum 196148721
field sqrsum 2590013094991
field min 1
field max 19806
statistic Basic.rack[7].node[0].app 	"End-to-End Delay"
field count 19806
field mean 7.4407679931347e-006
field stddev 3.9334140681508e-006
field sum 0.14737185087203
field sqrsum 1.402977685173e-006
field min 8.496e-007
field max 2.5796191e-005
statistic Basic.rack[7].node[0].app 	hops
field count 19806
field mean 4.25391295567
field stddev 0.83080284218457
field sum 84253
field sqrsum 372075
field min 3
field max 5
statistic Basic.rack[7].node[1].app 	throughput
field count 20093
field mean 10047
field stddev 5800.493815185
field sum 201874371
field sqrsum 2704241782459
field min 1
field max 20093
statistic Basic.rack[7].node[1].app 	"End-to-End Delay"
field count 20093
field mean 7.4670310190129e-006
field stddev 3.9263998196053e-006
field sum 0.15003505426503
field sqrsum 1.4300670436341e-006
field min 8.496e-007
field max 2.5251124e-005
statistic Basic.rack[7].node[1].app 	hops
field count 20093
field mean 4.2501866321605
field stddev 0.83334928049366
field sum 85399
field sqrsum 376915
field min 3
field max 5
statistic Basic.rack[7].node[2].app 	throughput
field count 20119
field mean 10060
field stddev 5807.9993686868
field sum 202397140
field sqrsum 2714752838820
field min 1
field max 20119
statistic Basic.rack[7].node[2].app 	"End-to-End Delay"
field count 20119
field mean 7.3947767668386e-006
field stddev 3.9716374147568e-006
field sum 0.14877551377203
field sqrsum 1.4175011084448e-006
field min 8.496e-007
field max 2.6027949e-005
statistic Basic.rack[7].node[2].app 	hops
field count 20119
field mean 4.2571698394552
field stddev 0.82592100352212
field sum 85650
field sqrsum 378350
field min 3
field max 5
statistic Basic.rack[7].node[3].app 	throughput
field count 19840
field mean 9920.5
field stddev 5727.4590061097
field sum 196822720
field sqrsum 2603374117440
field min 1
field max 19840
statistic Basic.rack[7].node[3].app 	"End-to-End Delay"
field count 19840
field mean 7.4129707403743e-006
field stddev 3.9606332474803e-006
field sum 0.14707333948903
field sqrsum 1.4014571316111e-006
field min 8.496e-007
field max 2.4353198e-005
statistic Basic.rack[7].node[3].app 	hops
field count 19840
field mean 4.2523689516129
field stddev 0.82879368341557
field sum 84367
field sqrsum 372387
field min 3
field max 5
statistic Basic.rack[7].node[4].app 	throughput
field count 19821
field mean 9911
field stddev 5721.9741785506
field sum 196445931
field sqrsum 2595902014211
field min 1
field max 19821
statistic Basic.rack[7].node[4].app 	"End-to-End Delay"
field count 19821
field mean 7.3543278803303e-006
field stddev 3.9749572146981e-006
field sum 0.14577013291603
field sqrsum 1.3852029985228e-006
field min 8.496e-007
field max 3.0457823e-005
statistic Basic.rack[7].node[4].app 	hops
field count 19821
field mean 4.251248675647
field stddev 0.82557449022733
field sum 84264
field sqrsum 371736
field min 3
field max 5
statistic Basic.rack[7].node[5].app 	throughput
field count 20072
field mean 10036.5
field stddev 5794.4316373567
field sum 201452628
field sqrsum 2695771917020
field min 1
field max 20072
statistic Basic.rack[7].node[5].app 	"End-to-End Delay"
field count 20072
field mean 7.4330060956071e-006
field stddev 3.950466228711e-006
field sum 0.14919529835103
field sqrsum 1.4222012695859e-006
field min 8.496e-007
field max 3.0683811e-005
statistic Basic.rack[7].node[5].app 	hops
field count 20072
field mean 4.2486548425668
field stddev 0.83129114898357
field sum 85279
field sqrsum 376191
field min 3
field max 5
statistic Basic.rack[7].node[6].app 	throughput
field count 19914
field mean 9957.5
field stddev 5748.8209660764
field sum 198293655
field sqrsum 2632612661665
field min 1
field max 19914
statistic Basic.rack[7].node[6].app 	"End-to-End Delay"
field count 19914
field mean 7.4230449358254e-006
field stddev 3.9566688136649e-006
field sum 0.14782251685203
field sqrsum 1.4090357422952e-006
field min 8.496e-007
field max 2.4933511e-005
statistic Basic.rack[7].node[6].app 	hops
field count 19914
field mean 4.2552475645275
field stddev 0.82847119269461
field sum 84739
field sqrsum 374253
field min 3
field max 5
statistic Basic.rack[7].node[7].app 	throughput
field count 19879
field mean 9940
field stddev 5738.7173363624
field sum 197597260
field sqrsum 2618756486780
field min 1
field max 19879
statistic Basic.rack[7].node[7].app 	"End-to-End Delay"
field count 19879
field mean 7.3809676341882e-006
field stddev 3.9609555079227e-006
field sum 0.14672625560003
field sqrsum 1.3948510358229e-006
field min 8.496e-007
field max 2.4944479e-005
statistic Basic.rack[7].node[7].app 	hops
field count 19879
field mean 4.2533326626088
field stddev 0.82672853098534
field sum 84552
field sqrsum 373214
field min 3
field max 5
statistic Basic.rack[7].node[8].app 	throughput
field count 19766
field mean 9883.5
field stddev 5706.0970461428
field sum 195357261
field sqrsum 2574352866371
field min 1
field max 19766
statistic Basic.rack[7].node[8].app 	"End-to-End Delay"
field count 19766
field mean 7.4258476802098e-006
field stddev 3.9518304034857e-006
field sum 0.14677930524703
field sqrsum 1.3986300476983e-006
field min 8.496e-007
field max 3.0991432e-005
statistic Basic.rack[7].node[8].app 	hops
field count 19766
field mean 4.2504806232925
field stddev 0.8304498012856
field sum 84015
field sqrsum 370735
field min 3
field max 5
statistic Basic.rack[7].node[9].app 	throughput
field count 19787
field mean 9894
field stddev 5712.1592239713
field sum 195772578
field sqrsum 2582566591450
field min 1
field max 19787
statistic Basic.rack[7].node[9].app 	"End-to-End Delay"
field count 19787
field mean 7.3693008076023e-006
field stddev 3.9921014391052e-006
field sum 0.14581635508003
field sqrsum 1.3898915702404e-006
field min 8.496e-007
field max 2.6998789e-005
statistic Basic.rack[7].node[9].app 	hops
field count 19787
field mean 4.2551675342397
field stddev 0.82481046160021
field sum 84197
field sqrsum 371733
field min 3
field max 5
statistic Basic.rack[7].eps.queue[0] 	dropsum
field count 0
field mean nan
field stddev nan
field sum 0
field sqrsum 0
field min nan
field max nan
statistic Basic.rack[7].eps.queue[1] 	dropsum
field count 0
field mean nan
field stddev nan
field sum 0
field sqrsum 0
field min nan
field max nan
statistic Basic.rack[7].eps.queue[2] 	dropsum
field count 0
field mean nan
field stddev nan
field sum 0
field sqrsum 0
field min nan
field max nan
statistic Basic.rack[7].eps.queue[3] 	dropsum
field count 0
field mean nan
field stddev nan
field sum 0
field sqrsum 0
field min nan
field max nan
statistic Basic.rack[8].node[0].app 	throughput
field count 19967
field mean 9984
field stddev 5764.1207482148
field sum 199350528
field sqrsum 2653687778560
field min 1
field max 19967
statistic Basic.rack[8].node[0].app 	"End-to-End Delay"
field count 19967
field mean 9.6897007787367e-006
field stddev 1.7311476336941e-006
field sum 0.19347425544904
field sqrsum 1.9345431926305e-006
field min 8.992e-006
field max 3.095083e-005
statistic Basic.rack[8].node[0].app 	hops
field count 19967
field mean 4.0006510742725
field stddev 1.0000248303046
field sum 79881
field sqrsum 339543
field min 3
field max 5
statistic Basic.rack[8].node[1].app 	throughput
field count 19807
field mean 9904
field stddev 5717.932726665
field sum 196168528
field sqrsum 2590405412240
field min 1
field max 19807
statistic Basic.rack[8].node[1].app 	"End-to-End Delay"
field count 19807
field mean 9.7058857840176e-006
field stddev 1.7495035288809e-006
field sum 0.19224447972404
field sqrsum 1.9265244268168e-006
field min 8.992e-006
field max 2.9817185e-005
statistic Basic.rack[8].node[1].app 	hops
field count 19807
field mean 4.0001514616045
field stddev 1.000025233086
field sum 79231
field sqrsum 336743
field min 3
field max 5
statistic Basic.rack[8].node[2].app 	throughput
field count 19994
field mean 9997.5
field stddev 5771.9149768513
field sum 199890015
field sqrsum 2664467269945
field min 1
field max 19994
statistic Basic.rack[8].node[2].app 	"End-to-End Delay"
field count 19994
field mean 9.6900571065839e-006
field stddev 1.7264023416556e-006
field sum 0.19374300178904
field sqrsum 1.9369691889869e-006
field min 8.992e-006
field max 2.8769103e-005
statistic Basic.rack[8].node[2].app 	hops
field count 19994
field mean 3.9946984095229
field stddev 1.0000109545594
field sum 79870
field sqrsum 339050
field min 3
field max 5
statistic Basic.rack[8].node[3].app 	throughput
field count 20067
field mean 10034
field stddev 5792.9882616833
field sum 201352278
field sqrsum 2693757892510
field min 1
field max 20067
statistic Basic.rack[8].node[3].app 	"End-to-End Delay"
field count 20067
field mean 9.7023882890835e-006
field stddev 1.7589967233538e-006
field sum 0.19469782579704
field sqrsum 1.9511195029638e-006
field min 8.992e-006
field max 3.3329657e-005
statistic Basic.rack[8].node[3].app 	hops
field count 20067
field mean 4.0016444909553
field stddev 1.0000235652511
field sum 80301
field sqrsum 341403
field min 3
field max 5
statistic Basic.rack[8].node[4].app 	throughput
field count 20200
field mean 10100.5
field stddev 5831.3820545962
field sum 204030100
field sqrsum 2747673356700
field min 1
field max 20200
statistic Basic.rack[8].node[4].app 	"End-to-End Delay"
field count 20200
field mean 9.6896796322791e-006
field stddev 1.6970930018042e-006
field sum 0.19573152857204
field sqrsum 1.9547514437415e-006
field min 8.992e-006
field max 2.8445717e-005
statistic Basic.rack[8].node[4].app 	hops
field count 20200
field mean 4.0022772277228
field stddev 1.0000221604437
field sum 80846
field sqrsum 343768
field min 3
field max 5
statistic Basic.rack[8].node[5].app 	throughput
field count 19908
field mean 9954.5
field stddev 5747.0889152683
field sum 198174186
field sqrsum 2630233854654
field min 1
field max 19908
statistic Basic.rack[8].node[5].app 	"End-to-End Delay"
field count 19908
field mean 9.6753028718624e-006
field stddev 1.7167367389403e-006
field sum 0.19261592957304
field sqrsum 1.9222870689731e-006
field min 8.992e-006
field max 3.01544e-005
statistic Basic.rack[8].node[5].app 	hops
field count 19908
field mean 4.0010046212578
field stddev 1.0000246118329
field sum 79652
field sqrsum 338596
field min 3
field max 5
statistic Basic.rack[8].node[6].app 	throughput
field count 19867
field mean 9934
field stddev 5735.2532347462
field sum 197358778
field sqrsum 2614017014610
field min 1
field max 19867
statistic Basic.rack[8].node[6].app 	"End-to-End Delay"
field count 19867
field mean 9.6944013981998e-006
field stddev 1.7305944120549e-006
field sum 0.19259867257804
field sqrsum 1.9266266568721e-006
field min 8.992e-006
field max 3.0822227e-005
statistic Basic.rack[8].node[6].app 	hops
field count 19867
field mean 4.0062918407409
field stddev 1.0000053739891
field sum 79593
field sqrsum 338739
field min 3
field max 5
statistic Basic.rack[8].node[7].app 	throughput
field count 19778
field mean 9889.5
field stddev 5709.5611477591
field sum 195594531
field sqrsum 2579044287589
field min 1
field max 19778
statistic Basic.rack[8].node[7].app 	"End-to-End Delay"
field count 19778
field mean 9.7108949474687e-006
field stddev 1.7405932113972e-006
field sum 0.19206208027104
field sqrsum 1.9250123642213e-006
field min 8.992e-006
field max 3.0205427e-005
statistic Basic.rack[8].node[7].app 	hops
field count 19778
field mean 4.0016179593488
field stddev 1.0000239726434
field sum 79144
field sqrsum 336482
field min 3
field max 5
statistic Basic.rack[8].node[8].app 	throughput
field count 19775
field mean 9888
field stddev 5708.695122355
field sum 195535200
field sqrsum 2577870898400
field min 1
field max 19775
statistic Basic.rack[8].node[8].app 	"End-to-End Delay"
field count 19775
field mean 9.6864202769677e-006
field stddev 1.7047674786635e-006
field sum 0.19154896097704
field sqrsum 1.9128915742989e-006
field min 8.992e-006
field max 3.1578153e-005
statistic Basic.rack[8].node[8].app 	hops
field count 19775
field mean 4.0003539823009
field stddev 1.0000252227557
field sum 79107
field sqrsum 336231
field min 3
field max 5
statistic Basic.rack[8].node[9].app 	throughput
field count 19963
field mean 9982
field stddev 5762.966047676
field sum 199270666
field sqrsum 2652093293794
field min 1
field max 19963
statistic Basic.rack[8].node[9].app 	"End-to-End Delay"
field count 19963
field mean 9.6822321829403e-006
field stddev 1.7280222323837e-006
field sum 0.19328640106804
field sqrsum 1.9310515593462e-006
field min 8.992e-006
field max 3.2225746e-005
statistic Basic.rack[8].node[9].app 	hops
field count 19963
field mean 3.9890297049542
field stddev 0.99996487027226
field sum 79633
field sqrsum 337619
field min 3
field max 5
statistic Basic.rack[8].eps.queue[0] 	dropsum
field count 0
field mean nan
field stddev nan
field sum 0
field sqrsum 0
field min nan
field max nan
statistic Basic.rack[8].eps.queue[1] 	dropsum
field count 0
field mean nan
field stddev nan
field sum 0
field sqrsum 0
field min nan
field max nan
statistic Basic.rack[8].eps.queue[2] 	dropsum
field count 0
field mean nan
field stddev nan
field sum 0
field sqrsum 0
field min nan
field max nan
statistic Basic.rack[8].eps.queue[3] 	dropsum
field count 0
field mean nan
field stddev nan
field sum 0
field sqrsum 0
field min nan
field max nan
statistic Basic.rack[9].node[0].app 	throughput
field count 20118
field mean 10059.5
field stddev 5807.7106935522
field sum 202377021
field sqrsum 2714348064659
field min 1
field max 20118
statistic Basic.rack[9].node[0].app 	"End-to-End Delay"
field count 20118
field mean 9.6913919514384e-006
field stddev 1.7161422745613e-006
field sum 0.19497142327904
field sqrsum 1.9487919503415e-006
field min 8.992e-006
field max 3.1864696e-005
statistic Basic.rack[9].node[0].app 	hops
field count 20118
field mean 4.0075554230043
field stddev 0.99999631096659
field sum 80624
field sqrsum 343222
field min 3
field max 5
statistic Basic.rack[9].node[1].app 	throughput
field count 20133
field mean 10067
field stddev 5812.0408205724
field sum 202678911
field sqrsum 2720423903079
field min 1
field max 20133
statistic Basic.rack[9].node[1].app 	"End-to-End Delay"
field count 20133
field mean 9.6870264398767e-006
field stddev 1.7146738238298e-006
field sum 0.19502890331404
field sqrsum 1.9484403634203e-006
field min 8.992e-006
field max 3.1621566e-005
statistic Basic.rack[9].node[1].app 	hops
field count 20133
field mean 3.995877415189
field stddev 1.0000163376735
field sum 80449
field sqrsum 341597
field min 3
field max 5
statistic Basic.rack[9].node[2].app 	throughput
field count 20077
field mean 10039
field stddev 5795.8750130301
field sum 201553003
field sqrsum 2697786945155
field min 1
field max 20077
statistic Basic.rack[9].node[2].app 	"End-to-End Delay"
field count 20077
field mean 9.686439022316e-006
field stddev 1.7166119946227e-006
field sum 0.19447463625104
field sqrsum 1.9429257937467e-006
field min 8.992e-006
field max 2.8332909e-005
statistic Basic.rack[9].node[2].app 	hops
field count 20077
field mean 4.0016436718633
field stddev 1.0000235541864
field sum 80341
field sqrsum 341573
field min 3
field max 5
statistic Basic.rack[9].node[3].app 	throughput
field count 20083
field mean 10042
field stddev 5797.6070638382
field sum 201673486
field sqrsum 2700206304054
field min 1
field max 20083
statistic Basic.rack[9].node[3].app 	"End-to-End Delay"
field count 20083
field mean 9.6843587409768e-006
field stddev 1.7038551119142e-006
field sum 0.19449097659504
field sqrsum 1.9418208901011e-006
field min 8.992e-006
field max 3.0907753e-005
statistic Basic.rack[9].node[3].app 	hops
field count 20083
field mean 4.0033361549569
field stddev 1.0000193324896
field sum 80399
field sqrsum 341947
field min 3
field max 5
statistic Basic.rack[9].node[4].app 	throughput
field count 20111
field mean 10056
field stddev 5805.6899676094
field sum 202236216
field sqrsum 2711515772056
field min 1
field max 20111
statistic Basic.rack[9].node[4].app 	"End-to-End Delay"
field count 20111
field mean 9.7057775283695e-006
field stddev 1.7472392516574e-006
field sum 0.19519289187304
field sqrsum 1.9558914966397e-006
field min 8.992e-006
field max 3.4293348e-005
statistic Basic.rack[9].node[4].app 	hops
field count 20111
field mean 3.9947789766794
field stddev 1.000011232969
field sum 80339
field sqrsum 341047
field min 3
field max 5
statistic Basic.rack[9].node[5].app 	throughput
field count 19692
field mean 9846.5
field stddev 5684.735086176
field sum 193897278
field sqrsum 2545548098010
field min 1
field max 19692
statistic Basic.rack[9].node[5].app 	"End-to-End Delay"
field count 19692
field mean 9.6893388543082e-006
field stddev 1.7510088870562e-006
field sum 0.19080246071904
field sqrsum 1.9091229346677e-006
field min 8.992e-006
field max 3.0578545e-005
statistic Basic.rack[9].node[5].app 	hops
field count 19692
field mean 3.9981718464351
field stddev 1.0000237208723
field sum 78732
field sqrsum 334476
field min 3
field max 5
statistic Basic.rack[9].node[6].app 	throughput
field count 19844
field mean 9922.5
field stddev 5728.6137066484
field sum 196902090
field sqrsum 2604949016670
field min 1
field max 19844
statistic Basic.rack[9].node[6].app 	"End-to-End Delay"
field count 19844
field mean 9.6851418106247e-006
field stddev 1.7063412870541e-006
field sum 0.19219195409004
field sqrsum 1.9191812206889e-006
field min 8.992e-006
field max 3.0263816e-005
statistic Basic.rack[9].node[6].app 	hops
field count 19844
field mean 4
field stddev 1.0000251974853
field sum 79376
field sqrsum 337348
field min 3
field max 5
statistic Basic.rack[9].node[7].app 	throughput
field count 20120
field mean 10060.5
field stddev 5808.2880438215
field sum 202417260
field sqrsum 2715157653220
field min 1
field max 20120
statistic Basic.rack[9].node[7].app 	"End-to-End Delay"
field count 20120
field mean 9.7013510809662e-006
field stddev 1.7455356789719e-006
field sum 0.19519118374904
field sqrsum 1.9549186780721e-006
field min 8.992e-006
field max 3.0896627e-005
statistic Basic.rack[9].node[7].app 	hops
field count 20120
field mean 3.9989065606362
field stddev 1.0000242540012
field sum 80458
field sqrsum 341864
field min 3
field max 5
statistic Basic.rack[9].node[8].app 	throughput
field count 20058
field mean 10029.5
field stddev 5790.3901854711
field sum 201171711
field sqrsum 2690135176729
field min 1
field max 20058
statistic Basic.rack[9].node[8].app 	"End-to-End Delay"
field count 20058
field mean 9.6890845594296e-006
field stddev 1.7150810051748e-006
field sum 0.19434365809304
field sqrsum 1.9420098596012e-006
field min 8.992e-006
field max 3.5649925e-005
statistic Basic.rack[9].node[8].app 	hops
field count 20058
field mean 4.0059826503141
field stddev 1.0000070319831
field sum 80352
field sqrsum 341946
field min 3
field max 5
statistic Basic.rack[9].node[9].app 	throughput
field count 19948
field mean 9974.5
field stddev 5758.6359206557
field sum 198971326
field sqrsum 2646119664474
field min 1
field max 19948
statistic Basic.rack[9].node[9].app 	"End-to-End Delay"
field count 19948
field mean 9.6893770237135e-006
field stddev 1.7224693050561e-006
field sum 0.19328369286904
field sqrsum 1.9319793371541e-006
field min 8.992e-006
field max 2.9605416e-005
statistic Basic.rack[9].node[9].app 	hops
field count 19948
field mean 3.9878684579908
field stddev 0.99995147440377
field sum 79550
field sqrsum 337180
field min 3
field max 5
statistic Basic.rack[9].eps.queue[0] 	dropsum
field count 0
field mean nan
field stddev nan
field sum 0
field sqrsum 0
field min nan
field max nan
statistic Basic.rack[9].eps.queue[1] 	dropsum
field count 0
field mean nan
field stddev nan
field sum 0
field sqrsum 0
field min nan
field max nan
statistic Basic.rack[9].eps.queue[2] 	dropsum
field count 0
field mean nan
field stddev nan
field sum 0
field sqrsum 0
field min nan
field max nan
statistic Basic.rack[9].eps.queue[3] 	dropsum
field count 0
field mean nan
field stddev nan
field sum 0
field sqrsum 0
field min nan
field max nan
statistic Basic.rack[10].node[0].app 	throughput
field count 19804
field mean 9902.5
field stddev 5717.0667012609
field sum 196109110
field sqrsum 2589228579330
field min 1
field max 19804
statistic Basic.rack[10].node[0].app 	"End-to-End Delay"
field count 19804
field mean 7.4010681281067e-006
field stddev 3.9504995345172e-006
field sum 0.14657075320903
field sqrsum 1.3938345915576e-006
field min 8.496e-007
field max 2.7255946e-005
statistic Basic.rack[10].node[0].app 	hops
field count 19804
field mean 4.2561603716421
field stddev 0.8272946412884
field sum 84289
field sqrsum 372301
field min 3
field max 5
statistic Basic.rack[10].node[1].app 	throughput
field count 19842
field mean 9921.5
field stddev 5728.036356379
field sum 196862403
field sqrsum 2604161487685
field min 1
field max 19842
statistic Basic.rack[10].node[1].app 	"End-to-End Delay"
field count 19842
field mean 7.4010174805476e-006
field stddev 3.9486948938669e-006
field sum 0.14685098884903
field sqrsum 1.3962114043773e-006
field min 8.496e-007
field max 2.5390504e-005
statistic Basic.rack[10].node[1].app 	hops
field count 19842
field mean 4.2365688942647
field stddev 0.83354720805309
field sum 84062
field sqrsum 369920
field min 3
field max 5
statistic Basic.rack[10].node[2].app 	throughput
field count 19877
field mean 9939
field stddev 5738.1399860931
field sum 197557503
field sqrsum 2617966177255
field min 1
field max 19877
statistic Basic.rack[10].node[2].app 	"End-to-End Delay"
field count 19877
field mean 7.409709122706e-006
field stddev 3.9488777587152e-006
field sum 0.14728278823203
field sqrsum 1.4012617198373e-006
field min 8.496e-007
field max 2.6088364e-005
statistic Basic.rack[10].node[2].app 	hops
field count 19877
field mean 4.2519997987624
field stddev 0.82933769762596
field sum 84517
field sqrsum 373037
field min 3
field max 5
statistic Basic.rack[10].node[3].app 	throughput
field count 20160
field mean 10080.5
field stddev 5819.8350492089
field sum 203222880
field sqrsum 2731383248160
field min 1
field max 20160
statistic Basic.rack[10].node[3].app 	"End-to-End Delay"
field count 20160
field mean 7.4117971242075e-006
field stddev 3.9634007972031e-006
field sum 0.14942183002402
field sqrsum 1.4241528664461e-006
field min 8.496e-007
field max 2.482264e-005
statistic Basic.rack[10].node[3].app 	hops
field count 20160
field mean 4.2636408730159
field stddev 0.82515118968202
field sum 85955
field sqrsum 380207
field min 3
field max 5
statistic Basic.rack[10].node[4].app 	throughput
field count 19859
field mean 9930
field stddev 5732.9438336687
field sum 197199870
field sqrsum 2610860545510
field min 1
field max 19859
statistic Basic.rack[10].node[4].app 	"End-to-End Delay"
field count 19859
field mean 7.4376437239048e-006
field stddev 3.9394735480802e-006
field sum 0.14770416671303
field sqrsum 1.4067562431075e-006
field min 8.496e-007
field max 2.4658977e-005
statistic Basic.rack[10].node[4].app 	hops
field count 19859
field mean 4.2467395135707
field stddev 0.83238703934915
field sum 84336
field sqrsum 371912
field min 3
field max 5
statistic Basic.rack[10].node[5].app 	throughput
field count 19941
field mean 9971
field stddev 5756.6151947129
field sum 198831711
field sqrsum 2643335043271
field min 1
field max 19941
statistic Basic.rack[10].node[5].app 	"End-to-End Delay"
field count 19941
field mean 7.3889660268304e-006
field stddev 3.962194023089e-006
field sum 0.14734337154103
field sqrsum 1.4017528572387e-006
field min 8.496e-007
field max 2.4754809e-005
statistic Basic.rack[10].node[5].app 	hops
field count 19941
field mean 4.2485331728599
field stddev 0.82859712729613
field sum 84720
field sqrsum 373626
field min 3
field max 5
statistic Basic.rack[10].node[6].app 	throughput
field count 20047
field mean 10024
field stddev 5787.2147589896
field sum 200951128
field sqrsum 2685711825720
field min 1
field max 20047
statistic Basic.rack[10].node[6].app 	"End-to-End Delay"
field count 20047
field mean 7.3993866949681e-006
field stddev 3.9752381824945e-006
field sum 0.14833550507403
field sqrsum 1.4143690506433e-006
field min 8.496e-007
field max 2.5236499e-005
statistic Basic.rack[10].node[6].app 	hops
field count 20047
field mean 4.2394872050681
field stddev 0.83148718766673
field sum 84989
field sqrsum 374169
field min 3
field max 5
statistic Basic.rack[10].node[7].app 	throughput
field count 20102
field mean 10051.5
field stddev 5803.0918913972
field sum 202055253
field sqrsum 2707877148955
field min 1
field max 20102
statistic Basic.rack[10].node[7].app 	"End-to-End Delay"
field count 20102
field mean 7.3824653203674e-006
field stddev 3.9464070603409e-006
field sum 0.14840231787002
field sqrsum 1.408630525853e-006
field min 8.496e-007
field max 2.5377206e-005
statistic Basic.rack[10].node[7].app 	hops
field count 20102
field mean 4.2452492289324
field stddev 0.82992035023854
field sum 85338
field sqrsum 376126
field min 3
field max 5
statistic Basic.rack[10].node[8].app 	throughput
field count 20063
field mean 10032
field stddev 5791.8335611445
field sum 201272016
field sqrsum 2692147395344
field min 1
field max 20063
statistic Basic.rack[10].node[8].app 	"End-to-End Delay"
field count 20063
field mean 7.3929132955204e-006
field stddev 3.9708190862269e-006
field sum 0.14832401944803
field sqrsum 1.4128722787946e-006
field min 8.496e-007
field max 2.8581578e-005
statistic Basic.rack[10].node[8].app 	hops
field count 20063
field mean 4.2496635597867
field stddev 0.82818807371668
field sum 85261
field sqrsum 376091
field min 3
field max 5
statistic Basic.rack[10].node[9].app 	throughput
field count 19941
field mean 9971
field stddev 5756.6151947129
field sum 198831711
field sqrsum 2643335043271
field min 1
field max 19941
statistic Basic.rack[10].node[9].app 	"End-to-End Delay"
field count 19941
field mean 7.3944314863861e-006
field stddev 3.9709011736973e-006
field sum 0.14745235827003
field sqrsum 1.4047413999913e-006
field min 8.496e-007
field max 3.1160131e-005
statistic Basic.rack[10].node[9].app 	hops
field count 19941
field mean 4.2456747404844
field stddev 0.82935847421643
field sum 84663
field sqrsum 373167
field min 3
field max 5
statistic Basic.rack[10].eps.queue[0] 	dropsum
field count 0
field mean nan
field stddev nan
field sum 0
field sqrsum 0
field min nan
field max nan
statistic Basic.rack[10].eps.queue[1] 	dropsum
field count 0
field mean nan
field stddev nan
field sum 0
field sqrsum 0
field min nan
field max nan
statistic Basic.rack[10].eps.queue[2] 	dropsum
field count 0
field mean nan
field stddev nan
field sum 0
field sqrsum 0
field min nan
field max nan
statistic Basic.rack[10].eps.queue[3] 	dropsum
field count 0
field mean nan
field stddev nan
field sum 0
field sqrsum 0
field min nan
field max nan
statistic Basic.rack[11].node[0].app 	throughput
field count 20053
field mean 10027
field stddev 5788.9468097977
field sum 201071431
field sqrsum 2688123961039
field min 1
field max 20053
statistic Basic.rack[11].node[0].app 	"End-to-End Delay"
field count 20053
field mean 7.3902144894044e-006
field stddev 3.9937257266637e-006
field sum 0.14819597115603
field sqrsum 1.4150263088543e-006
field min 8.496e-007
field max 2.7812379e-005
statistic Basic.rack[11].node[0].app 	hops
field count 20053
field mean 4.2420585448561
field stddev 0.8296762309949
field sum 85066
field sqrsum 374658
field min 3
field max 5
statistic Basic.rack[11].node[1].app 	throughput
field count 20040
field mean 10020.5
field stddev 5785.1940330468
field sum 200810820
field sqrsum 2682899492140
field min 1
field max 20040
statistic Basic.rack[11].node[1].app 	"End-to-End Delay"
field count 20040
field mean 7.4275563834344e-006
field stddev 3.9355642406781e-006
field sum 0.14884822992403
field sqrsum 1.415955996155e-006
field min 8.496e-007
field max 2.7369881e-005
statistic Basic.rack[11].node[1].app 	hops
field count 20040
field mean 4.2425648702595
field stddev 0.83345069450215
field sum 85021
field sqrsum 374627
field min 3
field max 5
statistic Basic.rack[11].node[2].app 	throughput
field count 19945
field mean 9973
field stddev 5757.7698952517
field sum 198911485
field sqrsum 2644926016045
field min 1
field max 19945
statistic Basic.rack[11].node[2].app 	"End-to-End Delay"
field count 19945
field mean 7.4329182132879e-006
field stddev 3.955233664889e-006
field sum 0.14824955376403
field sqrsum 1.4139282182546e-006
field min 8.496e-007
field max 2.6630862e-005
statistic Basic.rack[11].node[2].app 	hops
field count 19945
field mean 4.2478816746052
field stddev 0.83148028029283
field sum 84724
field sqrsum 373686
field min 3
field max 5
statistic Basic.rack[11].node[3].app 	throughput
field count 20111
field mean 10056
field stddev 5805.6899676094
field sum 202236216
field sqrsum 2711515772056
field min 1
field max 20111
statistic Basic.rack[11].node[3].app 	"End-to-End Delay"
field count 20111
field mean 7.4409270248135e-006
field stddev 3.9458861099624e-006
field sum 0.14964448339602
field sqrsum 1.4266067263628e-006
field min 8.496e-007
field max 2.8250392e-005
statistic Basic.rack[11].node[3].app 	hops
field count 20111
field mean 4.2480731937746
field stddev 0.83202205975526
field sum 85433
field sqrsum 376847
field min 3
field max 5
statistic Basic.rack[11].node[4].app 	throughput
field count 20047
field mean 10024
field stddev 5787.2147589896
field sum 200951128
field sqrsum 2685711825720
field min 1
field max 20047
[...]
field sqrsum 1.9340547793484e-006
field min 8.992e-006
field max 2.6954842e-005
statistic Basic.rack[13].node[1].app 	hops
field count 20135
field mean 3.9926992798609
field stddev 0.99999818203221
field sum 80393
field sqrsum 341119
field min 3
field max 5
statistic Basic.rack[13].node[2].app 	throughput
field count 19869
field mean 9935
field stddev 5735.8305850156
field sum 197398515
field sqrsum 2614806529195
field min 1
field max 19869
statistic Basic.rack[13].node[2].app 	"End-to-End Delay"
field count 19869
field mean 9.719657969955e-006
field stddev 1.7620598649494e-006
field sum 0.19311988420504
field sqrsum 1.9387464801679e-006
field min 8.992e-006
field max 3.3503683e-005
statistic Basic.rack[13].node[2].app 	hops
field count 19869
field mean 4.0072978005939
field stddev 0.99999853580812
field sum 79621
field sqrsum 338933
field min 3
field max 5
statistic Basic.rack[13].node[3].app 	throughput
field count 20008
field mean 10004.5
field stddev 5775.9564287369
field sum 200170036
field sqrsum 2670068110204
field min 1
field max 20008
statistic Basic.rack[13].node[3].app 	"End-to-End Delay"
field count 20008
field mean 9.6800925788703e-006
field stddev 1.7113463887033e-006
field sum 0.19367929231804
field sqrsum 1.9334281104365e-006
field min 8.992e-006
field max 3.2880308e-005
statistic Basic.rack[13].node[3].app 	hops
field count 20008
field mean 4.0043982407037
field stddev 1.0000153183916
field sum 80120
field sqrsum 340840
field min 3
field max 5
statistic Basic.rack[13].node[4].app 	throughput
field count 20027
field mean 10014
field stddev 5781.4412562959
field sum 200550378
field sqrsum 2677681796930
field min 1
field max 20027
statistic Basic.rack[13].node[4].app 	"End-to-End Delay"
field count 20027
field mean 9.6752536287031e-006
field stddev 1.7061644020401e-006
field sum 0.19376630442204
field sqrsum 1.9330337652366e-006
field min 8.992e-006
field max 3.3454297e-005
statistic Basic.rack[13].node[4].app 	hops
field count 20027
field mean 3.9958555949468
field stddev 1.0000163789326
field sum 80025
field sqrsum 339795
field min 3
field max 5
statistic Basic.rack[13].node[5].app 	throughput
field count 20090
field mean 10045.5
field stddev 5799.627789781
field sum 201814095
field sqrsum 2703030717065
field min 1
field max 20090
statistic Basic.rack[13].node[5].app 	"End-to-End Delay"
field count 20090
field mean 9.6915500664528e-006
field stddev 1.7383935593558e-006
field sum 0.19470324083504
field sqrsum 1.9476854090805e-006
field min 8.992e-006
field max 3.0078082e-005
statistic Basic.rack[13].node[5].app 	hops
field count 20090
field mean 4.0020905923345
field stddev 1.0000227035882
field sum 80402
field sqrsum 341866
field min 3
field max 5
statistic Basic.rack[13].node[6].app 	throughput
field count 20075
field mean 10038
field stddev 5795.2976627607
field sum 201512850
field sqrsum 2696980813450
field min 1
field max 20075
statistic Basic.rack[13].node[6].app 	"End-to-End Delay"
field count 20075
field mean 9.6848554574365e-006
field stddev 1.7002674465708e-006
field sum 0.19442347330804
field sqrsum 1.9409953516133e-006
field min 8.992e-006
field max 2.7964502e-005
statistic Basic.rack[13].node[6].app 	hops
field count 20075
field mean 4.0065255292653
field stddev 1.0000036155077
field sum 80431
field sqrsum 342323
field min 3
field max 5
statistic Basic.rack[13].node[7].app 	throughput
field count 20218
field mean 10109.5
field stddev 5836.5782070205
field sum 204393871
field sqrsum 2755024987209
field min 1
field max 20218
statistic Basic.rack[13].node[7].app 	"End-to-End Delay"
field count 20218
field mean 9.6930485815628e-006
field stddev 1.7265036386116e-006
field sum 0.19597405622204
field sqrsum 1.9598491807836e-006
field min 8.992e-006
field max 2.9712631e-005
statistic Basic.rack[13].node[7].app 	hops
field count 20218
field mean 3.9969334256603
field stddev 1.0000200292892
field sum 80810
field sqrsum 343210
field min 3
field max 5
statistic Basic.rack[13].node[8].app 	throughput
field count 20001
field mean 10001
field stddev 5773.9357027941
field sum 200030001
field sqrsum 2667266710001
field min 1
field max 20001
statistic Basic.rack[13].node[8].app 	"End-to-End Delay"
field count 20001
field mean 9.6832493964821e-006
field stddev 1.690772541597e-006
field sum 0.19367467117904
field sqrsum 1.9325743785566e-006
field min 8.992e-006
field max 3.3521126e-005
statistic Basic.rack[13].node[8].app 	hops
field count 20001
field mean 4.0024498775061
field stddev 1.0000219986581
field sum 80053
field sqrsum 340409
field min 3
field max 5
statistic Basic.rack[13].node[9].app 	throughput
field count 19913
field mean 9957
field stddev 5748.5322909418
field sum 198273741
field sqrsum 2632216094269
field min 1
field max 19913
statistic Basic.rack[13].node[9].app 	"End-to-End Delay"
field count 19913
field mean 9.6847054488544e-006
field stddev 1.7064135210965e-006
field sum 0.19285153960304
field sqrsum 1.9256910559679e-006
field min 8.992e-006
field max 2.8162658e-005
statistic Basic.rack[13].node[9].app 	hops
field count 19913
field mean 4.0041681313715
field stddev 1.0000164232555
field sum 79735
field sqrsum 339185
field min 3
field max 5
statistic Basic.rack[13].eps.queue[0] 	dropsum
field count 0
field mean nan
field stddev nan
field sum 0
field sqrsum 0
field min nan
field max nan
statistic Basic.rack[13].eps.queue[1] 	dropsum
field count 0
field mean nan
field stddev nan
field sum 0
field sqrsum 0
field min nan
field max nan
statistic Basic.rack[13].eps.queue[2] 	dropsum
field count 0
field mean nan
field stddev nan
field sum 0
field sqrsum 0
field min nan
field max nan
statistic Basic.rack[13].eps.queue[3] 	dropsum
field count 0
field mean nan
field stddev nan
field sum 0
field sqrsum 0
field min nan
field max nan
statistic Basic.rack[14].node[0].app 	throughput
field count 19906
field mean 9953.5
field stddev 5746.5115649989
field sum 198134371
field sqrsum 2629441237541
field min 1
field max 19906
statistic Basic.rack[14].node[0].app 	"End-to-End Delay"
field count 19906
field mean 7.3721020127613e-006
field stddev 3.9806333100745e-006
field sum 0.14674906266603
field sqrsum 1.3972525742894e-006
field min 8.496e-007
field max 2.760902e-005
statistic Basic.rack[14].node[0].app 	hops
field count 19906
field mean 4.2559027428916
field stddev 0.82495709212893
field sum 84718
field sqrsum 374098
field min 3
field max 5
statistic Basic.rack[14].node[1].app 	throughput
field count 20229
field mean 10115
field stddev 5839.753633502
field sum 204616335
field sqrsum 2759524099255
field min 1
field max 20229
statistic Basic.rack[14].node[1].app 	"End-to-End Delay"
field count 20229
field mean 7.4303233617097e-006
field stddev 3.9778450215503e-006
field sum 0.15030801128403
field sqrsum 1.4369098492368e-006
field min 8.496e-007
field max 2.8018086e-005
statistic Basic.rack[14].node[1].app 	hops
field count 20229
field mean 4.2576004745662
field stddev 0.82742216763628
field sum 86127
field sqrsum 380543
field min 3
field max 5
statistic Basic.rack[14].node[2].app 	throughput
field count 19970
field mean 9985.5
field stddev 5764.9867736188
field sum 199410435
field sqrsum 2654884061445
field min 1
field max 19970
statistic Basic.rack[14].node[2].app 	"End-to-End Delay"
field count 19970
field mean 7.3827354395606e-006
field stddev 3.963873033712e-006
field sum 0.14743322672803
field sqrsum 1.4022192155093e-006
field min 8.496e-007
field max 2.8698621e-005
statistic Basic.rack[14].node[2].app 	hops
field count 19970
field mean 4.250375563345
field stddev 0.82780932284553
field sum 84880
field sqrsum 374456
field min 3
field max 5
statistic Basic.rack[14].node[3].app 	throughput
field count 19804
field mean 9902.5
field stddev 5717.0667012609
field sum 196109110
field sqrsum 2589228579330
field min 1
field max 19804
statistic Basic.rack[14].node[3].app 	"End-to-End Delay"
field count 19804
field mean 7.3863016871353e-006
field stddev 3.9832507726492e-006
field sum 0.14627831861203
field sqrsum 1.3946558674281e-006
field min 8.496e-007
field max 2.4753671e-005
statistic Basic.rack[14].node[3].app 	hops
field count 19804
field mean 4.2516158351848
field stddev 0.8269191607119
field sum 84199
field sqrsum 371523
field min 3
field max 5
statistic Basic.rack[14].node[4].app 	throughput
field count 19748
field mean 9874.5
field stddev 5700.9008937185
field sum 195001626
field sqrsum 2567326407374
field min 1
field max 19748
statistic Basic.rack[14].node[4].app 	"End-to-End Delay"
field count 19748
field mean 7.4308793612531e-006
field stddev 3.9789467816537e-006
field sum 0.14674500562603
field sqrsum 1.4030792830728e-006
field min 8.496e-007
field max 3.1896952e-005
statistic Basic.rack[14].node[4].app 	hops
field count 19748
field mean 4.2434676929309
field stddev 0.83181920814358
field sum 83800
field sqrsum 369266
field min 3
field max 5
statistic Basic.rack[14].node[5].app 	throughput
field count 20143
field mean 10072
field stddev 5814.9275719192
field sum 202880296
field sqrsum 2724479494984
field min 1
field max 20143
statistic Basic.rack[14].node[5].app 	"End-to-End Delay"
field count 20143
field mean 7.4065238288252e-006
field stddev 3.9641656560015e-006
field sum 0.14918960948403
field sqrsum 1.4215000591484e-006
field min 8.496e-007
field max 2.4381374e-005
statistic Basic.rack[14].node[5].app 	hops
field count 20143
field mean 4.2532393387281
field stddev 0.82800579234273
field sum 85673
field sqrsum 378197
field min 3
field max 5
statistic Basic.rack[14].node[6].app 	throughput
field count 19954
field mean 9977.5
field stddev 5760.3679714639
field sum 199091035
field sqrsum 2648508038605
field min 1
field max 19954
statistic Basic.rack[14].node[6].app 	"End-to-End Delay"
field count 19954
field mean 7.3703708709044e-006
field stddev 3.9584152728577e-006
field sum 0.14706838035803
field sqrsum 1.3965930906506e-006
field min 8.496e-007
field max 3.0685857e-005
statistic Basic.rack[14].node[6].app 	hops
field count 19954
field mean 4.244762954796
field stddev 0.82906220826907
field sum 84700
field sqrsum 373246
field min 3
field max 5
statistic Basic.rack[14].node[7].app 	throughput
field count 20202
field mean 10101.5
field stddev 5831.9594048656
field sum 204070503
field sqrsum 2748489557905
field min 1
field max 20202
statistic Basic.rack[14].node[7].app 	"End-to-End Delay"
field count 20202
field mean 7.4314112002784e-006
field stddev 3.9618906394645e-006
field sum 0.15012936906802
field sqrsum 1.4327596356296e-006
field min 8.496e-007
field max 2.5761874e-005
statistic Basic.rack[14].node[7].app 	hops
field count 20202
field mean 4.2472527472527
field stddev 0.83105807156574
field sum 85803
field sqrsum 378379
field min 3
field max 5
statistic Basic.rack[14].node[8].app 	throughput
field count 20252
field mean 10126.5
field stddev 5846.3931615997
field sum 205081878
field sqrsum 2768947156130
field min 1
field max 20252
statistic Basic.rack[14].node[8].app 	"End-to-End Delay"
field count 20252
field mean 7.4431032538527e-006
field stddev 3.9509096688422e-006
field sum 0.15073772709702
field sqrsum 1.4380682427513e-006
field min 8.496e-007
field max 2.5247957e-005
statistic Basic.rack[14].node[8].app 	hops
field count 20252
field mean 4.2442721706498
field stddev 0.83319676969729
field sum 85955
field sqrsum 378875
field min 3
field max 5
statistic Basic.rack[14].node[9].app 	throughput
field count 19845
field mean 9923
field stddev 5728.9023817831
field sum 196921935
field sqrsum 2605342840695
field min 1
field max 19845
statistic Basic.rack[14].node[9].app 	"End-to-End Delay"
field count 19845
field mean 7.415090178283e-006
field stddev 3.9670394708654e-006
field sum 0.14715246458803
field sqrsum 1.4034418034074e-006
field min 8.496e-007
field max 2.5038206e-005
statistic Basic.rack[14].node[9].app 	hops
field count 19845
field mean 4.2560846560847
field stddev 0.8273865622375
field sum 84462
field sqrsum 373062
field min 3
field max 5
statistic Basic.rack[14].eps.queue[0] 	dropsum
field count 0
field mean nan
field stddev nan
field sum 0
field sqrsum 0
field min nan
field max nan
statistic Basic.rack[14].eps.queue[1] 	dropsum
field count 0
field mean nan
field stddev nan
field sum 0
field sqrsum 0
field min nan
field max nan
statistic Basic.rack[14].eps.queue[2] 	dropsum
field count 0
field mean nan
field stddev nan
field sum 0
field sqrsum 0
field min nan
field max nan
statistic Basic.rack[14].eps.queue[3] 	dropsum
field count 0
field mean nan
field stddev nan
field sum 0
field sqrsum 0
field min nan
field max nan
statistic Basic.rack[15].node[0].app 	throughput
field count 19815
field mean 9908
field stddev 5720.2421277425
field sum 196327020
field sqrsum 2593545376540
field min 1
field max 19815
statistic Basic.rack[15].node[0].app 	"End-to-End Delay"
field count 19815
field mean 7.3869198226609e-006
field stddev 3.9633717494365e-006
field sum 0.14637181628603
field sqrsum 1.3924814369806e-006
field min 8.496e-007
field max 2.6746999e-005
statistic Basic.rack[15].node[0].app 	hops
field count 19815
field mean 4.2522836235175
field stddev 0.82738026240595
field sum 84259
field sqrsum 371857
field min 3
field max 5
statistic Basic.rack[15].node[1].app 	throughput
field count 19980
field mean 9990.5
field stddev 5767.8735249657
field sum 199610190
field sqrsum 2658874267530
field min 1
field max 19980
statistic Basic.rack[15].node[1].app 	"End-to-End Delay"
field count 19980
field mean 7.3897665676689e-006
field stddev 3.9375775819266e-006
field sum 0.14764753602203
field sqrsum 1.4008455749066e-006
field min 8.496e-007
field max 2.9028419e-005
statistic Basic.rack[15].node[1].app 	hops
field count 19980
field mean 4.2354854854855
field stddev 0.83347552757556
field sum 84625
field sqrsum 372307
field min 3
field max 5
statistic Basic.rack[15].node[2].app 	throughput
field count 20119
field mean 10060
field stddev 5807.9993686868
field sum 202397140
field sqrsum 2714752838820
field min 1
field max 20119
statistic Basic.rack[15].node[2].app 	"End-to-End Delay"
field count 20119
field mean 7.4229162740208e-006
field stddev 3.9526984161806e-006
field sum 0.14934165251703
field sqrsum 1.4228706895661e-006
field min 8.496e-007
field max 3.0691076e-005
statistic Basic.rack[15].node[2].app 	hops
field count 20119
field mean 4.2520005964511
field stddev 0.82991216343984
field sum 85546
field sqrsum 377598
field min 3
field max 5
statistic Basic.rack[15].node[3].app 	throughput
field count 19899
field mean 9950
field stddev 5744.4908390561
field sum 197995050
field sqrsum 2626668331650
field min 1
field max 19899
statistic Basic.rack[15].node[3].app 	"End-to-End Delay"
field count 19899
field mean 7.4247289717587e-006
field stddev 3.9588304979259e-006
field sum 0.14774468180903
field sqrsum 1.4088124191079e-006
field min 8.496e-007
field max 2.5680444e-005
statistic Basic.rack[15].node[3].app 	hops
field count 19899
field mean 4.2523744911805
field stddev 0.82954099985706
field sum 84618
field sqrsum 373520
field min 3
field max 5
statistic Basic.rack[15].node[4].app 	throughput
field count 20072
field mean 10036.5
field stddev 5794.4316373567
field sum 201452628
field sqrsum 2695771917020
field min 1
field max 20072
statistic Basic.rack[15].node[4].app 	"End-to-End Delay"
field count 20072
field mean 7.3791670527116e-006
field stddev 3.9693050689331e-006
field sum 0.14811464108203
field sqrsum 1.4091889662757e-006
field min 8.496e-007
field max 2.7050522e-005
statistic Basic.rack[15].node[4].app 	hops
field count 20072
field mean 4.25
field stddev 0.82755290132658
field sum 85306
field sqrsum 376296
field min 3
field max 5
statistic Basic.rack[15].node[5].app 	throughput
field count 19959
field mean 9980
field stddev 5761.8113471373
field sum 199190820
field sqrsum 2650499447860
field min 1
field max 19959
statistic Basic.rack[15].node[5].app 	"End-to-End Delay"
field count 19959
field mean 7.4281241225024e-006
field stddev 3.989581790764e-006
field sum 0.14825792936103
field sqrsum 1.4189450547025e-006
field min 8.496e-007
field max 2.8916692e-005
statistic Basic.rack[15].node[5].app 	hops
field count 19959
field mean 4.2482589308082
field stddev 0.82987354404174
field sum 84791
field sqrsum 373959
field min 3
field max 5
statistic Basic.rack[15].node[6].app 	throughput
field count 20017
field mean 10009
field stddev 5778.554504949
field sum 200350153
field sqrsum 2673672791785
field min 1
field max 20017
statistic Basic.rack[15].node[6].app 	"End-to-End Delay"
field count 20017
field mean 7.4460189882113e-006
field stddev 3.948724601125e-006
field sum 0.14904696208703
field sqrsum 1.4219045081614e-006
field min 8.496e-007
field max 2.6833603e-005
statistic Basic.rack[15].node[6].app 	hops
field count 20017
field mean 4.2495378927911
field stddev 0.83172981892083
field sum 85063
field sqrsum 375325
field min 3
field max 5
statistic Basic.rack[15].node[7].app 	throughput
field count 19895
field mean 9948
field stddev 5743.3361385174
field sum 197915460
field sqrsum 2625084689620
field min 1
field max 19895
statistic Basic.rack[15].node[7].app 	"End-to-End Delay"
field count 19895
field mean 7.4259143528538e-006
field stddev 3.9785018898268e-006
field sum 0.14773856605003
field sqrsum 1.4119856652556e-006
field min 8.496e-007
field max 2.408202e-005
statistic Basic.rack[15].node[7].app 	hops
field count 19895
field mean 4.2561950238753
field stddev 0.82776216768981
field sum 84677
field sqrsum 374033
field min 3
field max 5
statistic Basic.rack[15].node[8].app 	throughput
field count 19734
field mean 9867.5
field stddev 5696.8594418328
field sum 194725245
field sqrsum 2561870231635
field min 1
field max 19734
statistic Basic.rack[15].node[8].app 	"End-to-End Delay"
field count 19734
field mean 7.4537110642559e-006
field stddev 3.9538685722179e-006
field sum 0.14709153414203
field sqrsum 1.404865297745e-006
field min 8.496e-007
field max 2.9774283e-005
statistic Basic.rack[15].node[8].app 	hops
field count 19734
field mean 4.2520522955306
field stddev 0.83134910288557
field sum 83910
field sqrsum 370428
field min 3
field max 5
statistic Basic.rack[15].node[9].app 	throughput
field count 19962
field mean 9981.5
field stddev 5762.6773725413
field sum 199250703
field sqrsum 2651694772425
field min 1
field max 19962
statistic Basic.rack[15].node[9].app 	"End-to-End Delay"
field count 19962
field mean 7.3889548889904e-006
field stddev 3.9747025040798e-006
field sum 0.14749831749403
field sqrsum 1.4052074819443e-006
field min 8.496e-007
field max 2.5981152e-005
statistic Basic.rack[15].node[9].app 	hops
field count 19962
field mean 4.2432121029957
field stddev 0.82991164047339
field sum 84703
field sqrsum 373161
field min 3
field max 5
statistic Basic.rack[15].eps.queue[0] 	dropsum
field count 0
field mean nan
field stddev nan
field sum 0
field sqrsum 0
field min nan
field max nan
statistic Basic.rack[15].eps.queue[1] 	dropsum
field count 0
field mean nan
field stddev nan
field sum 0
field sqrsum 0
field min nan
field max nan
statistic Basic.rack[15].eps.queue[2] 	dropsum
field count 0
field mean nan
field stddev nan
field sum 0
field sqrsum 0
field min nan
field max nan
statistic Basic.rack[15].eps.queue[3] 	dropsum
field count 0
field mean nan
field stddev nan
field sum 0
field sqrsum 0
field min nan
field max nan
