version 2
run Basic-53-20180510-18:15:56-22856
attr configname Basic
attr datetime 20180510-18:15:56
attr experiment Basic
attr inifile omnetpp.ini
attr iterationvars "$0=exponential(0.08 ms), $1=5, $2=3"
attr iterationvarsf exponential(0.08_ms),5,3-
attr measurement "$0=exponential(0.08 ms), $1=5, $2=3"
attr network Networks.Basic
attr processid 22856
attr repetition 0
attr replication #0
attr resultdir results
attr runnumber 53
attr seedset 53
param **.frameCapacity 50
param **.packetLength "1024 bytes"
param **.pattern 5
param **.sendIaTime "exponential(0.08 ms)"
param **.tp 3

statistic Basic.rack[0].node[0].app 	throughput
field count 125310
field mean 62655.5
field stddev 36174.025453355
field sum 7851360705
field sqrsum 6.5590529041594e+014
field min 1
field max 125310
statistic Basic.rack[0].node[0].app 	"End-to-End Delay"
field count 125310
field mean 1.976191236167e-005
field stddev 1.5004047535506e-005
field sum 2.4763652380409
field sqrsum 7.7147455641331e-005
field min 8.992e-006
field max 0.000194935543
statistic Basic.rack[0].node[0].app 	hops
field count 125310
field mean 4.0074056340276
field stddev 0.99997656793534
field sum 502168
field sqrsum 2137694
field min 3
field max 5
statistic Basic.rack[0].node[1].app 	throughput
field count 124915
field mean 62458
field stddev 36059.998775189
field sum 7801941070
field sqrsum 6.4972224648639e+014
field min 1
field max 124915
statistic Basic.rack[0].node[1].app 	"End-to-End Delay"
field count 124915
field mean 1.9854217276555e-005
field stddev 1.5202513205501e-005
field sum 2.4800895511008
field sqrsum 7.810991177223e-005
field min 8.992e-006
field max 0.000205576874
statistic Basic.rack[0].node[1].app 	hops
field count 124915
field mean 3.9993515590602
field stddev 1.0000037925072
field sum 499579
field sqrsum 2122907
field min 3
field max 5
statistic Basic.rack[0].node[2].app 	throughput
field count 124864
field mean 62432.5
field stddev 36045.276343325
field sum 7795571680
field sqrsum 6.4892677335824e+014
field min 1
field max 124864
statistic Basic.rack[0].node[2].app 	"End-to-End Delay"
field count 124864
field mean 1.9765971928937e-005
field stddev 1.4960748146586e-005
field sum 2.4680583189348
field sqrsum 7.6730905703284e-005
field min 8.992e-006
field max 0.000177895648
statistic Basic.rack[0].node[2].app 	hops
field count 124864
field mean 4.0002562788314
field stddev 1.0000039715412
field sum 499488
field sqrsum 2122944
field min 3
field max 5
statistic Basic.rack[0].node[3].app 	throughput
field count 125464
field mean 62732.5
field stddev 36218.481424083
field sum 7870670380
field sqrsum 6.5832648259434e+014
field min 1
field max 125464
statistic Basic.rack[0].node[3].app 	"End-to-End Delay"
field count 125464
field mean 1.9823752848561e-005
field stddev 1.5106578265435e-005
field sum 2.4871673273918
field sqrsum 7.7936739383734e-005
field min 8.992e-006
field max 0.000201081228
statistic Basic.rack[0].node[3].app 	hops
field count 125464
field mean 4.0021838933877
field stddev 1.0000016005232
field sum 502130
field sqrsum 2135080
field min 3
field max 5
statistic Basic.rack[0].node[4].app 	throughput
field count 124775
field mean 62388
field stddev 36019.584256346
field sum 7784462700
field sqrsum 6.475401504159e+014
field min 1
field max 124775
statistic Basic.rack[0].node[4].app 	"End-to-End Delay"
field count 124775
field mean 1.9768727821268e-005
field stddev 1.5032434601415e-005
field sum 2.4666430138988
field sqrsum 7.6958085485374e-005
field min 8.992e-006
field max 0.000205592798
statistic Basic.rack[0].node[4].app 	hops
field count 124775
field mean 3.9958725706271
field stddev 0.99999548933005
field sum 498585
field sqrsum 2117055
field min 3
field max 5
statistic Basic.rack[0].node[5].app 	throughput
field count 125539
field mean 62770
field stddev 36240.132059178
field sum 7880083030
field sqrsum 6.5950778902979e+014
field min 1
field max 125539
statistic Basic.rack[0].node[5].app 	"End-to-End Delay"
field count 125539
field mean 1.9832307849623e-005
field stddev 1.5178770036428e-005
field sum 2.4897280951338
field sqrsum 7.8300389064077e-005
field min 8.992e-006
field max 0.000192924215
statistic Basic.rack[0].node[5].app 	hops
field count 125539
field mean 3.997713857845
field stddev 1.000001369613
field sum 501869
field sqrsum 2131867
field min 3
field max 5
statistic Basic.rack[0].node[6].app 	throughput
field count 124835
field mean 62418
field stddev 36036.904764422
field sum 7791951030
field sqrsum 6.4847473520371e+014
field min 1
field max 124835
statistic Basic.rack[0].node[6].app 	"End-to-End Delay"
field count 124835
field mean 1.980037205455e-005
field stddev 1.5066129943302e-005
field sum 2.4717794454298
field sqrsum 7.7278006536793e-005
field min 8.992e-006
field max 0.000189054881
statistic Basic.rack[0].node[6].app 	hops
field count 124835
field mean 4.0038691072215
field stddev 0.9999965202577
field sum 499823
field sqrsum 2126059
field min 3
field max 5
statistic Basic.rack[0].node[7].app 	throughput
field count 124949
field mean 62475
field stddev 36069.813729766
field sum 7806188775
field sqrsum 6.5025292289458e+014
field min 1
field max 124949
statistic Basic.rack[0].node[7].app 	"End-to-End Delay"
field count 124949
field mean 1.9804588911066e-005
field stddev 1.5074188511893e-005
field sum 2.4745635798488
field sqrsum 7.739979332443e-005
field min 8.992e-006
field max 0.0002015454
statistic Basic.rack[0].node[7].app 	hops
field count 124949
field mean 4.0040096359315
field stddev 0.99999596300206
field sum 500297
field sqrsum 2128141
field min 3
field max 5
statistic Basic.rack[0].node[8].app 	throughput
field count 125311
field mean 62656
field stddev 36174.31412849
field sum 7851486016
field sqrsum 6.5592099326266e+014
field min 1
field max 125311
statistic Basic.rack[0].node[8].app 	"End-to-End Delay"
field count 125311
field mean 1.9780430558888e-005
field stddev 1.5059466396457e-005
field sum 2.4787055337648
field sqrsum 7.7448607838544e-005
field min 8.992e-006
field max 0.000195697985
statistic Basic.rack[0].node[8].app 	hops
field count 125311
field mean 4.0018114930054
field stddev 1.0000023493352
field sum 501471
field sqrsum 2132103
field min 3
field max 5
statistic Basic.rack[0].node[9].app 	throughput
field count 125267
field mean 62634
field stddev 36161.612422568
field sum 7845973278
field sqrsum 6.5523030506791e+014
field min 1
field max 125267
statistic Basic.rack[0].node[9].app 	"End-to-End Delay"
field count 125267
field mean 1.9765338991481e-005
field stddev 1.5005781297081e-005
field sum 2.4759447194458
field sqrsum 7.7144466889631e-005
field min 8.992e-006
field max 0.000204207722
statistic Basic.rack[0].node[9].app 	hops
field count 125267
field mean 4.0016844021171
field stddev 1.0000025728862
field sum 501279
field sqrsum 2131227
field min 3
field max 5
statistic Basic.rack[0].eps.queue[0] 	dropsum
field count 0
field mean nan
field stddev nan
field sum 0
field sqrsum 0
field min nan
field max nan
statistic Basic.rack[0].eps.queue[1] 	dropsum
field count 0
field mean nan
field stddev nan
field sum 0
field sqrsum 0
field min nan
field max nan
statistic Basic.rack[0].eps.queue[2] 	dropsum
field count 0
field mean nan
field stddev nan
field sum 0
field sqrsum 0
field min nan
field max nan
statistic Basic.rack[0].eps.queue[3] 	dropsum
field count 0
field mean nan
field stddev nan
field sum 0
field sqrsum 0
field min nan
field max nan
statistic Basic.rack[1].node[0].app 	throughput
field count 125229
field mean 62615
field stddev 36150.642767453
field sum 7841213835
field sqrsum 6.5463419196676e+014
field min 1
field max 125229
statistic Basic.rack[1].node[0].app 	"End-to-End Delay"
field count 125229
field mean 1.9811653245477e-005
field stddev 1.5220708793897e-005
field sum 2.4809935242778
field sqrsum 7.8164151185414e-005
field min 8.992e-006
field max 0.000206794752
statistic Basic.rack[1].node[0].app 	hops
field count 125229
field mean 4.0008704054173
field stddev 1.0000036139049
field sum 501025
field sqrsum 2129765
field min 3
field max 5
statistic Basic.rack[1].node[1].app 	throughput
field count 125168
field mean 62584.5
field stddev 36133.033584243
field sum 7833576696
field sqrsum 6.5367802978218e+014
field min 1
field max 125168
statistic Basic.rack[1].node[1].app 	"End-to-End Delay"
field count 125168
field mean 1.9831295350248e-005
field stddev 1.5206237482469e-005
field sum 2.4822435763998
field sqrsum 7.8168428144444e-005
field min 8.992e-006
field max 0.000210488396
statistic Basic.rack[1].node[1].app 	hops
field count 125168
field mean 4.0012463249393
field stddev 1.0000032179888
field sum 500828
field sqrsum 2129104
field min 3
field max 5
statistic Basic.rack[1].node[2].app 	throughput
field count 125243
field mean 62622
field stddev 36154.684219337
field sum 7842967146
field sqrsum 6.5485377050003e+014
field min 1
field max 125243
statistic Basic.rack[1].node[2].app 	"End-to-End Delay"
field count 125243
field mean 1.9855027426977e-005
field stddev 1.5184029445373e-005
field sum 2.4867032000368
field sqrsum 7.8248698263775e-005
field min 8.992e-006
field max 0.000198943227
statistic Basic.rack[1].node[2].app 	hops
field count 125243
field mean 4.0029782103591
field stddev 0.99999955736698
field sum 501345
field sqrsum 2132115
field min 3
field max 5
statistic Basic.rack[1].node[3].app 	throughput
field count 125247
field mean 62624
field stddev 36155.838919876
field sum 7843468128
field sqrsum 6.5491651624112e+014
field min 1
field max 125247
statistic Basic.rack[1].node[3].app 	"End-to-End Delay"
field count 125247
field mean 1.9750317181576e-005
field stddev 1.5174489343058e-005
field sum 2.4736679760408
field sqrsum 7.7695513202735e-005
field min 8.992e-006
field max 0.000208635793
statistic Basic.rack[1].node[3].app 	hops
field count 125247
field mean 3.9979640230904
field stddev 1.0000019195241
field sum 500733
field sqrsum 2127159
field min 3
field max 5
statistic Basic.rack[1].node[4].app 	throughput
field count 124740
field mean 62370.5
field stddev 36009.480626635
field sum 7780096170
field sqrsum 6.4699539086259e+014
field min 1
field max 124740
statistic Basic.rack[1].node[4].app 	"End-to-End Delay"
field count 124740
field mean 1.9771382930574e-005
field stddev 1.51716323587e-005
field sum 2.4662823067598
field sqrsum 7.747403888547e-005
field min 8.992e-006
field max 0.000216639561
statistic Basic.rack[1].node[4].app 	hops
field count 124740
field mean 4.002886002886
field stddev 0.99999984382975
field sum 499320
field sqrsum 2123460
field min 3
field max 5
statistic Basic.rack[1].node[5].app 	throughput
field count 124572
field mean 62286.5
field stddev 35960.983204023
field sum 7759153878
field sqrsum 6.4438479764477e+014
field min 1
field max 124572
statistic Basic.rack[1].node[5].app 	"End-to-End Delay"
field count 124572
field mean 1.9829107564507e-005
field stddev 1.5168567336959e-005
field sum 2.4701515875258
field sqrsum 7.7642874260033e-005
field min 8.992e-006
field max 0.000219959734
statistic Basic.rack[1].node[5].app 	hops
field count 124572
field mean 3.9994220209999
field stddev 1.0000038467367
field sum 498216
field sqrsum 2117148
field min 3
field max 5
statistic Basic.rack[1].node[6].app 	throughput
field count 125026
field mean 62513.5
field stddev 36092.04171513
field sum 7815812851
field sqrsum 6.514558169437e+014
field min 1
field max 125026
statistic Basic.rack[1].node[6].app 	"End-to-End Delay"
field count 125026
field mean 1.9786349877559e-005
field stddev 1.5223942795352e-005
field sum 2.4738081797917
field sqrsum 7.7924482665702e-005
field min 8.992e-006
field max 0.000224956001
statistic Basic.rack[1].node[6].app 	hops
field count 125026
field mean 3.9976964791323
field stddev 1.0000013460738
field sum 499816
field sqrsum 2123138
field min 3
field max 5
statistic Basic.rack[1].node[7].app 	throughput
field count 125063
field mean 62532
field stddev 36102.72269511
field sum 7820439516
field sqrsum 6.5203435827284e+014
field min 1
field max 125063
statistic Basic.rack[1].node[7].app 	"End-to-End Delay"
field count 125063
field mean 1.9735851314288e-005
field stddev 1.5090201000917e-005
field sum 2.4682247729188
field sqrsum 7.7190906187882e-005
field min 8.992e-006
field max 0.00020969312
statistic Basic.rack[1].node[7].app 	hops
field count 125063
field mean 4.0008555687933
field stddev 1.0000036320085
field sum 500359
field sqrsum 2126927
field min 3
field max 5
statistic Basic.rack[1].node[8].app 	throughput
field count 125266
field mean 62633.5
field stddev 36161.323747433
field sum 7845848011
field sqrsum 6.5521461324662e+014
field min 1
field max 125266
statistic Basic.rack[1].node[8].app 	"End-to-End Delay"
field count 125266
field mean 1.9753014395485e-005
field stddev 1.5180340269502e-005
field sum 2.4743811012648
field sqrsum 7.7742894174066e-005
field min 8.992e-006
field max 0.000201222281
statistic Basic.rack[1].node[8].app 	hops
field count 125266
field mean 4.006753628279
field stddev 0.99998118543142
field sum 501910
field sqrsum 2136290
field min 3
field max 5
statistic Basic.rack[1].node[9].app 	throughput
field count 125083
field mean 62542
field stddev 36108.496197802
field sum 7822940986
field sqrsum 6.5234722588155e+014
field min 1
field max 125083
statistic Basic.rack[1].node[9].app 	"End-to-End Delay"
field count 125083
field mean 1.9814540878055e-005
field stddev 1.5190132771787e-005
field sum 2.4784622166497
field sqrsum 7.7971028300544e-005
field min 8.992e-006
field max 0.000234723532
statistic Basic.rack[1].node[9].app 	hops
field count 125083
field mean 4.0005836124813
field stddev 1.0000038270673
field sum 500405
field sqrsum 2126995
field min 3
field max 5
statistic Basic.rack[1].eps.queue[0] 	dropsum
field count 0
field mean nan
field stddev nan
field sum 0
field sqrsum 0
field min nan
field max nan
statistic Basic.rack[1].eps.queue[1] 	dropsum
field count 0
field mean nan
field stddev nan
field sum 0
field sqrsum 0
field min nan
field max nan
statistic Basic.rack[1].eps.queue[2] 	dropsum
field count 0
field mean nan
field stddev nan
field sum 0
field sqrsum 0
field min nan
field max nan
statistic Basic.rack[1].eps.queue[3] 	dropsum
field count 0
field mean nan
field stddev nan
field sum 0
field sqrsum 0
field min nan
field max nan
statistic Basic.rack[2].node[0].app 	throughput
field count 124648
field mean 62324.5
field stddev 35982.922514252
field sum 7768624276
field sqrsum 6.4556490871132e+014
field min 1
field max 124648
statistic Basic.rack[2].node[0].app 	"End-to-End Delay"
field count 124648
field mean 9.7083388967231e-006
field stddev 7.2027733665455e-006
field sum 1.2101250267987
field sqrsum 1.8214983268503e-005
field min 8.496e-007
field max 7.5822338e-005
statistic Basic.rack[2].node[0].app 	hops
field count 124648
field mean 4.2497031641101
field stddev 0.82941825369273
field sum 529717
field sqrsum 2336889
field min 3
field max 5
statistic Basic.rack[2].node[1].app 	throughput
field count 125560
field mean 62780.5
field stddev 36246.194237005
field sum 7882719580
field sqrsum 6.5983880788306e+014
field min 1
field max 125560
statistic Basic.rack[2].node[1].app 	"End-to-End Delay"
field count 125560
field mean 9.7060311806921e-006
field stddev 7.1615153429705e-006
field sum 1.2186892750477
field sqrsum 1.8268218455961e-005
field min 8.496e-007
field max 7.4842407e-005
statistic Basic.rack[2].node[1].app 	hops
field count 125560
field mean 4.2535202293724
field stddev 0.8286571980755
field sum 534072
field sqrsum 2357904
field min 3
field max 5
statistic Basic.rack[2].node[2].app 	throughput
field count 125218
field mean 62609.5
field stddev 36147.467340972
field sum 7839836371
field sqrsum 6.5446170041471e+014
field min 1
field max 125218
statistic Basic.rack[2].node[2].app 	"End-to-End Delay"
field count 125218
field mean 9.6435526174972e-006
field stddev 7.1715570846901e-006
field sum 1.2075463716578
field sqrsum 1.8085101427652e-005
field min 8.496e-007
field max 8.0301004e-005
statistic Basic.rack[2].node[2].app 	hops
field count 125218
field mean 4.2474724081202
field stddev 0.82810875713042
field sum 531860
field sqrsum 2344930
field min 3
field max 5
statistic Basic.rack[2].node[3].app 	throughput
field count 124984
field mean 62492.5
field stddev 36079.917359477
field sum 7810562620
field sqrsum 6.5079950918626e+014
field min 1
field max 124984
statistic Basic.rack[2].node[3].app 	"End-to-End Delay"
field count 124984
field mean 9.6976468367531e-006
field stddev 7.138066432519e-006
field sum 1.2120506922447
field sqrsum 1.8122172427143e-005
field min 8.496e-007
field max 7.8210593e-005
statistic Basic.rack[2].node[3].app 	hops
field count 124984
field mean 4.2483437880049
field stddev 0.83078945950588
field sum 530975
field sqrsum 2342029
field min 3
field max 5
statistic Basic.rack[2].node[4].app 	throughput
field count 124364
field mean 62182.5
field stddev 35900.938776026
field sum 7733264430
field sqrsum 6.4116237613649e+014
field min 1
field max 124364
statistic Basic.rack[2].node[4].app 	"End-to-End Delay"
field count 124364
field mean 9.6949705013488e-006
field stddev 7.2034526885866e-006
field sum 1.2057053114297
field sqrsum 1.8142439998803e-005
field min 8.496e-007
field max 7.8996184e-005
statistic Basic.rack[2].node[4].app 	hops
field count 124364
field mean 4.2518092052362
field stddev 0.82776232946814
field sum 528772
field sqrsum 2333450
field min 3
field max 5
statistic Basic.rack[2].node[5].app 	throughput
field count 124718
field mean 62359.5
field stddev 36003.129773674
field sum 7777352121
field sqrsum 6.4665312700196e+014
field min 1
field max 124718
statistic Basic.rack[2].node[5].app 	"End-to-End Delay"
field count 124718
field mean 9.6893285689291e-006
field stddev 7.1980659833827e-006
field sum 1.2084336804597
field sqrsum 1.8170767381822e-005
field min 8.496e-007
field max 7.2781927e-005
statistic Basic.rack[2].node[5].app 	hops
field count 124718
field mean 4.2469571352972
field stddev 0.82938236725549
field sum 529672
field sqrsum 2335284
field min 3
field max 5
statistic Basic.rack[2].node[6].app 	throughput
field count 124810
field mean 62405.5
field stddev 36029.687886057
field sum 7788830455
field sqrsum 6.4808521566918e+014
field min 1
field max 124810
statistic Basic.rack[2].node[6].app 	"End-to-End Delay"
field count 124810
field mean 9.6814573566762e-006
field stddev 7.1587080148689e-006
field sum 1.2083426926868
field sqrsum 1.8094617610582e-005
field min 8.496e-007
field max 7.0506993e-005
statistic Basic.rack[2].node[6].app 	hops
field count 124810
field mean 4.246646903293
field stddev 0.83036819975882
field sum 530024
field sqrsum 2336882
field min 3
field max 5
statistic Basic.rack[2].node[7].app 	throughput
field count 125219
field mean 62610
field stddev 36147.756016107
field sum 7839961590
field sqrsum 6.5447738021267e+014
field min 1
field max 125219
statistic Basic.rack[2].node[7].app 	"End-to-End Delay"
field count 125219
field mean 9.7089979839379e-006
field stddev 7.1641384854832e-006
field sum 1.2157510185507
field sqrsum 1.8230523041869e-005
field min 8.496e-007
field max 7.5643718e-005
statistic Basic.rack[2].node[7].app 	hops
field count 125219
field mean 4.2534040361287
field stddev 0.82929517679882
field sum 532607
field sqrsum 2351509
field min 3
field max 5
statistic Basic.rack[2].node[8].app 	throughput
field count 124589
field mean 62295
field stddev 35965.890681311
field sum 7761271755
field sqrsum 6.4464864487972e+014
field min 1
field max 124589
statistic Basic.rack[2].node[8].app 	"End-to-End Delay"
field count 124589
field mean 9.6894934908918e-006
field stddev 7.1753021529705e-006
field sum 1.2072043045367
field sqrsum 1.8111606570361e-005
field min 8.496e-007
field max 7.9405612e-005
statistic Basic.rack[2].node[8].app 	hops
field count 124589
field mean 4.2459125604989
field stddev 0.83092329167158
field sum 528994
field sqrsum 2332082
field min 3
field max 5
statistic Basic.rack[2].node[9].app 	throughput
field count 125422
field mean 62711.5
field stddev 36206.35706843
field sum 7865401753
field sqrsum 6.576655675771e+014
field min 1
field max 125422
statistic Basic.rack[2].node[9].app 	"End-to-End Delay"
field count 125422
field mean 9.6792369040179e-006
field stddev 7.1893055332574e-006
field sum 1.2139892509757
field sqrsum 1.8233013669456e-005
field min 8.496e-007
field max 7.9948475e-005
statistic Basic.rack[2].node[9].app 	hops
field count 125422
field mean 4.2484572084642
field stddev 0.82929388198665
field sum 532850
field sqrsum 2350046
field min 3
field max 5
statistic Basic.rack[2].eps.queue[0] 	dropsum
field count 0
field mean nan
field stddev nan
field sum 0
field sqrsum 0
field min nan
field max nan
statistic Basic.rack[2].eps.queue[1] 	dropsum
field count 0
field mean nan
field stddev nan
field sum 0
field sqrsum 0
field min nan
field max nan
statistic Basic.rack[2].eps.queue[2] 	dropsum
field count 0
field mean nan
field stddev nan
field sum 0
field sqrsum 0
field min nan
field max nan
statistic Basic.rack[2].eps.queue[3] 	dropsum
field count 0
field mean nan
field stddev nan
field sum 0
field sqrsum 0
field min nan
field max nan
statistic Basic.rack[3].node[0].app 	throughput
field count 124844
field mean 62422.5
field stddev 36039.502840633
field sum 7793074590
field sqrsum 6.4861500043417e+014
field min 1
field max 124844
statistic Basic.rack[3].node[0].app 	"End-to-End Delay"
field count 124844
field mean 9.739091183707e-006
field stddev 7.1847660891852e-006
field sum 1.2158670997387
field sqrsum 1.8285944045553e-005
field min 8.496e-007
field max 9.097829e-005
statistic Basic.rack[3].node[0].app 	hops
field count 124844
field mean 4.2541011181955
field stddev 0.82946811368099
field sum 531099
field sqrsum 2345243
field min 3
field max 5
statistic Basic.rack[3].node[1].app 	throughput
field count 124233
field mean 62117
field stddev 35863.122333394
field sum 7716981261
field sqrsum 6.3913839432563e+014
field min 1
field max 124233
statistic Basic.rack[3].node[1].app 	"End-to-End Delay"
field count 124233
field mean 9.6781428263645e-006
field stddev 7.1275849008942e-006
field sum 1.2023447177477
field sqrsum 1.7947755925532e-005
field min 8.496e-007
field max 8.3109998e-005
statistic Basic.rack[3].node[1].app 	hops
field count 124233
field mean 4.2489193692497
field stddev 0.82985932929504
field sum 527856
field sqrsum 2328372
field min 3
field max 5
statistic Basic.rack[3].node[2].app 	throughput
field count 125665
field mean 62833
field stddev 36276.505126137
field sum 7895908945
field sqrsum 6.6149556368526e+014
field min 1
field max 125665
statistic Basic.rack[3].node[2].app 	"End-to-End Delay"
field count 125665
field mean 9.6853238376454e-006
field stddev 7.1595637163484e-006
field sum 1.2171062200577
field sqrsum 1.822952317226e-005
field min 8.496e-007
field max 8.5233509e-005
statistic Basic.rack[3].node[2].app 	hops
field count 125665
field mean 4.2520829188716
field stddev 0.82855382607543
field sum 534338
field sqrsum 2358318
field min 3
field max 5
statistic Basic.rack[3].node[3].app 	throughput
field count 124382
field mean 62191.5
field stddev 35906.134928449
field sum 7735503153
field sqrsum 6.4144081395202e+014
field min 1
field max 124382
statistic Basic.rack[3].node[3].app 	"End-to-End Delay"
field count 124382
field mean 9.6890105000139e-006
field stddev 7.1782675109511e-006
field sum 1.2051385040127
field sqrsum 1.8085644639057e-005
field min 8.496e-007
field max 8.272968e-005
statistic Basic.rack[3].node[3].app 	hops
field count 124382
field mean 4.2500602981139
field stddev 0.82868790983479
field sum 528631
field sqrsum 2332129
field min 3
field max 5
statistic Basic.rack[3].node[4].app 	throughput
field count 124839
field mean 62420
field stddev 36038.05946496
field sum 7792450380
field sqrsum 6.4853707280934e+014
field min 1
field max 124839
statistic Basic.rack[3].node[4].app 	"End-to-End Delay"
field count 124839
field mean 9.7083584575071e-006
field stddev 7.2068746495996e-006
field sum 1.2119817614767
field sqrsum 1.8250319536418e-005
field min 8.496e-007
field max 9.0146431e-005
statistic Basic.rack[3].node[4].app 	hops
field count 124839
field mean 4.2493691875135
field stddev 0.82953174133323
field sum 530487
field sqrsum 2340139
field min 3
field max 5
statistic Basic.rack[3].node[5].app 	throughput
field count 125107
field mean 62554
field stddev 36115.424401032
field sum 7825943278
field sqrsum 6.5272279910159e+014
field min 1
field max 125107
statistic Basic.rack[3].node[5].app 	"End-to-End Delay"
field count 125107
field mean 9.6446257191825e-006
field stddev 7.1051066090052e-006
field sum 1.2066101898498
field sqrsum 1.7952972309951e-005
field min 8.496e-007
field max 8.3792626e-005
statistic Basic.rack[3].node[5].app 	hops
field count 125107
field mean 4.250361690393
field stddev 0.82856695408198
field sum 531750
field sqrsum 2346018
field min 3
field max 5
statistic Basic.rack[3].node[6].app 	throughput
field count 124803
field mean 62402
field stddev 36027.667160115
field sum 7787956806
field sqrsum 6.4797617815841e+014
field min 1
field max 124803
statistic Basic.rack[3].node[6].app 	"End-to-End Delay"
field count 124803
field mean 9.6627878184637e-006
field stddev 7.12863856932e-006
field sum 1.2059449081077
field sqrsum 1.7994913886707e-005
field min 8.496e-007
field max 8.801315e-005
statistic Basic.rack[3].node[6].app 	hops
field count 124803
field mean 4.2449139844395
field stddev 0.83016343004543
field sum 529778
field sqrsum 2334872
field min 3
field max 5
statistic Basic.rack[3].node[7].app 	throughput
field count 124959
field mean 62480
field stddev 36072.700481112
field sum 7807438320
field sqrsum 6.5040905916536e+014
field min 1
field max 124959
statistic Basic.rack[3].node[7].app 	"End-to-End Delay"
field count 124959
field mean 9.6999334635099e-006
field stddev 7.1172089791749e-006
field sum 1.2120939856667
field sqrsum 1.808693647327e-005
field min 8.496e-007
field max 8.2193734e-005
statistic Basic.rack[3].node[7].app 	hops
field count 124959
field mean 4.2565721556671
field stddev 0.8283760537649
field sum 531897
field sqrsum 2349805
field min 3
field max 5
statistic Basic.rack[3].node[8].app 	throughput
field count 124846
field mean 62423.5
field stddev 36040.080190902
field sum 7793324281
field sqrsum 6.4864617323191e+014
field min 1
field max 124846
statistic Basic.rack[3].node[8].app 	"End-to-End Delay"
field count 124846
field mean 9.6716855918468e-006
field stddev 7.1378459002684e-006
field sum 1.2074712593997
field sqrsum 1.8038990823268e-005
field min 8.496e-007
field max 8.6805254e-005
statistic Basic.rack[3].node[8].app 	hops
field count 124846
field mean 4.2517661759287
field stddev 0.82823577128543
field sum 530816
field sqrsum 2342546
field min 3
field max 5
statistic Basic.rack[3].node[9].app 	throughput
field count 124999
field mean 62500
field stddev 36084.247486496
field sum 7812437500
field sqrsum 6.510338541875e+014
field min 1
field max 124999
statistic Basic.rack[3].node[9].app 	"End-to-End Delay"
field count 124999
field mean 9.6695049863818e-006
field stddev 7.1270305626557e-006
field sum 1.2086784537927
field sqrsum 1.803654132688e-005
field min 8.496e-007
field max 8.2498315e-005
statistic Basic.rack[3].node[9].app 	hops
field count 124999
field mean 4.249657997264
field stddev 0.82852783077512
field sum 531203
field sqrsum 2343237
field min 3
field max 5
statistic Basic.rack[3].eps.queue[0] 	dropsum
field count 0
field mean nan
field stddev nan
field sum 0
field sqrsum 0
field min nan
field max nan
statistic Basic.rack[3].eps.queue[1] 	dropsum
field count 0
field mean nan
field stddev nan
field sum 0
field sqrsum 0
field min nan
field max nan
statistic Basic.rack[3].eps.queue[2] 	dropsum
field count 0
field mean nan
field stddev nan
field sum 0
field sqrsum 0
field min nan
field max nan
statistic Basic.rack[3].eps.queue[3] 	dropsum
field count 0
field mean nan
field stddev nan
field sum 0
field sqrsum 0
field min nan
field max nan
statistic Basic.rack[4].node[0].app 	throughput
field count 125102
field mean 62551.5
field stddev 36113.981025359
field sum 7825317753
field sqrsum 6.5264454279646e+014
field min 1
field max 125102
statistic Basic.rack[4].node[0].app 	"End-to-End Delay"
field count 125102
field mean 1.970010249788e-005
field stddev 1.5009445400681e-005
field sum 2.4645222226898
field sqrsum 7.673452542837e-005
field min 8.992e-006
field max 0.000229469497
statistic Basic.rack[4].node[0].app 	hops
field count 125102
field mean 4.0000959217279
field stddev 1.0000039921621
field sum 500420
field sqrsum 2126830
field min 3
field max 5
statistic Basic.rack[4].node[1].app 	throughput
field count 125345
field mean 62673
field stddev 36184.129083066
field sum 7855747185
field sqrsum 6.5645503918494e+014
field min 1
field max 125345
statistic Basic.rack[4].node[1].app 	"End-to-End Delay"
field count 125345
field mean 1.9714805963419e-005
field stddev 1.4997994642727e-005
field sum 2.4711523534847
field sqrsum 7.6913148874002e-005
field min 8.992e-006
field max 0.000204564525
statistic Basic.rack[4].node[1].app 	hops
field count 125345
field mean 3.9972156847102
field stddev 1.0000001127855
field sum 501031
field sqrsum 2128073
field min 3
field max 5
statistic Basic.rack[4].node[2].app 	throughput
field count 124746
field mean 62373.5
field stddev 36011.212677443
field sum 7780844631
field sqrsum 6.4708875650736e+014
field min 1
field max 124746
statistic Basic.rack[4].node[2].app 	"End-to-End Delay"
field count 124746
field mean 1.9757585039045e-005
field stddev 1.5002678656333e-005
field sum 2.4646797032807
field sqrsum 7.6773769196174e-005
field min 8.992e-006
field max 0.000191126459
statistic Basic.rack[4].node[2].app 	hops
field count 124746
field mean 3.9989899475735
field stddev 1.0000034980635
field sum 498858
field sqrsum 2119674
field min 3
field max 5
statistic Basic.rack[4].node[3].app 	throughput
field count 125194
field mean 62597.5
field stddev 36140.539137742
field sum 7836831415
field sqrsum 6.5408546039014e+014
field min 1
field max 125194
statistic Basic.rack[4].node[3].app 	"End-to-End Delay"
field count 125194
field mean 1.9780642270099e-005
field stddev 1.5111005899415e-005
field sum 2.4764177283628
field sqrsum 7.7572015709958e-005
field min 8.992e-006
field max 0.000212027465
statistic Basic.rack[4].node[3].app 	hops
field count 125194
field mean 4.0008466859434
field stddev 1.0000036353855
field sum 500882
field sqrsum 2129146
field min 3
field max 5
statistic Basic.rack[4].node[4].app 	throughput
field count 124416
field mean 62208.5
field stddev 35915.949883026
field sum 7739732736
field sqrsum 6.419669719657e+014
field min 1
field max 124416
statistic Basic.rack[4].node[4].app 	"End-to-End Delay"
field count 124416
field mean 1.9777019545635e-005
field stddev 1.5161390761378e-005
field sum 2.4605776637898
field sqrsum 7.7261891132381e-005
field min 8.992e-006
field max 0.000224639107
statistic Basic.rack[4].node[4].app 	hops
field count 124416
field mean 3.9974922839506
field stddev 1.0000008744625
field sum 497352
field sqrsum 2112576
field min 3
field max 5
statistic Basic.rack[4].node[5].app 	throughput
field count 125210
field mean 62605.5
field stddev 36145.157939896
field sum 7838834655
field sqrsum 6.5433627104658e+014
field min 1
field max 125210
statistic Basic.rack[4].node[5].app 	"End-to-End Delay"
field count 125210
field mean 1.9828409511363e-005
field stddev 1.5206287508031e-005
field sum 2.4827151549178
field sqrsum 7.8180517580465e-005
field min 8.992e-006
field max 0.000201823886
statistic Basic.rack[4].node[5].app 	hops
field count 125210
field mean 3.9963101988659
field stddev 0.99999718594863
field sum 500378
field sqrsum 2124874
field min 3
field max 5
statistic Basic.rack[4].node[6].app 	throughput
field count 125222
field mean 62611.5
field stddev 36148.622041511
field sum 7840337253
field sqrsum 6.545244211092e+014
field min 1
field max 125222
statistic Basic.rack[4].node[6].app 	"End-to-End Delay"
field count 125222
field mean 1.9706564572901e-005
field stddev 1.5051652937397e-005
field sum 2.4676954289478
field sqrsum 7.6998899383902e-005
field min 8.992e-006
field max 0.000202087947
statistic Basic.rack[4].node[6].app 	hops
field count 125222
field mean 3.9951925380524
field stddev 0.99999243697441
field sum 500286
field sqrsum 2123958
field min 3
field max 5
statistic Basic.rack[4].node[7].app 	throughput
field count 125225
field mean 62613
field stddev 36149.488066915
field sum 7840712925
field sqrsum 6.5457146425972e+014
field min 1
field max 125225
statistic Basic.rack[4].node[7].app 	"End-to-End Delay"
field count 125225
field mean 1.970669012249e-005
field stddev 1.4934104028688e-005
field sum 2.4677702705888
field sqrsum 7.6559975060187e-005
field min 8.992e-006
field max 0.000191653631
statistic Basic.rack[4].node[7].app 	hops
field count 125225
field mean 3.9976122978638
field stddev 1.0000011422607
field sum 500601
field sqrsum 2126433
field min 3
field max 5
statistic Basic.rack[4].node[8].app 	throughput
field count 125022
field mean 62511.5
field stddev 36090.887014591
field sum 7815312753
field sqrsum 6.513932924413e+014
field min 1
field max 125022
statistic Basic.rack[4].node[8].app 	"End-to-End Delay"
field count 125022
field mean 1.9825616647133e-005
field stddev 1.5172635481889e-005
field sum 2.4786382444578
field sqrsum 7.7921474461043e-005
field min 8.992e-006
field max 0.000209393769
statistic Basic.rack[4].node[8].app 	hops
field count 125022
field mean 3.9994081041737
field stddev 1.0000038241491
field sum 500014
field sqrsum 2124782
field min 3
field max 5
statistic Basic.rack[4].node[9].app 	throughput
field count 125262
field mean 62631.5
field stddev 36160.169046895
field sum 7845346953
field sqrsum 6.5515184846678e+014
field min 1
field max 125262
statistic Basic.rack[4].node[9].app 	"End-to-End Delay"
field count 125262
field mean 1.9776953806652e-005
field stddev 1.5119336396963e-005
field sum 2.4773007877288
field sqrsum 7.7627418000597e-005
field min 8.992e-006
field max 0.000203819018
statistic Basic.rack[4].node[9].app 	hops
field count 125262
field mean 3.9976209864125
field stddev 1.0000011617893
field sum 500750
field sqrsum 2127070
field min 3
field max 5
statistic Basic.rack[4].eps.queue[0] 	dropsum
field count 0
field mean nan
field stddev nan
field sum 0
field sqrsum 0
field min nan
field max nan
statistic Basic.rack[4].eps.queue[1] 	dropsum
field count 0
field mean nan
field stddev nan
field sum 0
field sqrsum 0
field min nan
field max nan
statistic Basic.rack[4].eps.queue[2] 	dropsum
field count 0
field mean nan
field stddev nan
field sum 0
field sqrsum 0
field min nan
field max nan
statistic Basic.rack[4].eps.queue[3] 	dropsum
field count 0
field mean nan
field stddev nan
field sum 0
field sqrsum 0
field min nan
field max nan
statistic Basic.rack[5].node[0].app 	throughput
field count 125007
field mean 62504
field stddev 36086.556887572
field sum 7813437528
field sqrsum 6.5115886118764e+014
field min 1
field max 125007
statistic Basic.rack[5].node[0].app 	"End-to-End Delay"
field count 125007
field mean 1.9810800319541e-005
field stddev 1.5133053265426e-005
field sum 2.4764887155448
field sqrsum 7.7688760134839e-005
field min 8.992e-006
field max 0.000192462189
statistic Basic.rack[5].node[0].app 	hops
field count 125007
field mean 4.0009039493788
field stddev 1.0000035912361
field sum 500141
field sqrsum 2126023
field min 3
field max 5
statistic Basic.rack[5].node[1].app 	throughput
field count 125772
field mean 62886.5
field stddev 36307.393365539
field sum 7909360878
field sqrsum 6.6318672735217e+014
field min 1
field max 125772
statistic Basic.rack[5].node[1].app 	"End-to-End Delay"
field count 125772
field mean 1.9806216978523e-005
field stddev 1.5094002881109e-005
field sum 2.4910675218228
field sqrsum 7.7992895316855e-005
field min 8.992e-006
field max 0.000201934668
statistic Basic.rack[5].node[1].app 	hops
field count 125772
field mean 3.9986642495945
field stddev 1.0000030833528
field sum 502920
field sqrsum 2136780
field min 3
field max 5
statistic Basic.rack[5].node[2].app 	throughput
field count 124919
field mean 62460
field stddev 36061.153475728
field sum 7802440740
field sqrsum 6.4978466401362e+014
field min 1
field max 124919
statistic Basic.rack[5].node[2].app 	"End-to-End Delay"
field count 124919
field mean 1.9864215810444e-005
field stddev 1.5323568806877e-005
field sum 2.4814179748248
field sqrsum 7.8623637725819e-005
field min 8.992e-006
field max 0.000205974833
statistic Basic.rack[5].node[2].app 	hops
field count 124919
field mean 3.9961815256286
field stddev 0.99999671218869
field sum 499199
field sqrsum 2119807
field min 3
field max 5
statistic Basic.rack[5].node[3].app 	throughput
field count 124848
field mean 62424.5
field stddev 36040.657541171
field sum 7793573976
field sqrsum 6.4867734702842e+014
field min 1
field max 124848
statistic Basic.rack[5].node[3].app 	"End-to-End Delay"
field count 124848
field mean 1.975827983044e-005
field stddev 1.5070303701257e-005
field sum 2.4667817202708
field sqrsum 7.7093871765532e-005
field min 8.992e-006
field max 0.000206503795
statistic Basic.rack[5].node[3].app 	hops
field count 124848
field mean 4.0013616557734
field stddev 1.0000030778366
field sum 499562
field sqrsum 2123776
field min 3
field max 5
statistic Basic.rack[5].node[4].app 	throughput
field count 124992
field mean 62496.5
field stddev 36082.226760553
field sum 7811562528
field sqrsum 6.5092448618736e+014
field min 1
field max 124992
statistic Basic.rack[5].node[4].app 	"End-to-End Delay"
field count 124992
field mean 1.9938948122478e-005
field stddev 1.5334560387111e-005
field sum 2.4922090037248
field sqrsum 7.9083502480206e-005
field min 8.992e-006
field max 0.000183191669
statistic Basic.rack[5].node[4].app 	hops
field count 124992
field mean 3.9978558627752
field stddev 1.000001701606
field sum 499700
field sqrsum 2122720
field min 3
field max 5
statistic Basic.rack[5].node[5].app 	throughput
field count 124241
field mean 62121
field stddev 35865.431734471
field sum 7717975161
field sqrsum 6.3926187397692e+014
field min 1
field max 124241
statistic Basic.rack[5].node[5].app 	"End-to-End Delay"
field count 124241
field mean 1.9821865314822e-005
field stddev 1.5249246767829e-005
field sum 2.4626883685788
field sqrsum 7.7705787987104e-005
field min 8.992e-006
field max 0.000201844012
statistic Basic.rack[5].node[5].app 	hops
field count 124241
field mean 4.0007485451662
field stddev 1.0000037442996
field sum 497057
field sqrsum 2112841
field min 3
field max 5
statistic Basic.rack[5].node[6].app 	throughput
field count 125284
field mean 62642.5
field stddev 36166.519899856
field sum 7848102970
field sqrsum 6.5549710436331e+014
field min 1
field max 125284
statistic Basic.rack[5].node[6].app 	"End-to-End Delay"
field count 125284
field mean 1.9828436567972e-005
field stddev 1.5208551117627e-005
field sum 2.4841858469818
field sqrsum 7.8235482784783e-005
field min 8.992e-006
field max 0.000202353187
statistic Basic.rack[5].node[6].app 	hops
field count 125284
field mean 3.9994731968967
field stddev 1.0000038521952
field sum 501070
field sqrsum 2129300
field min 3
field max 5
statistic Basic.rack[5].node[7].app 	throughput
field count 125158
field mean 62579.5
field stddev 36130.146832897
field sum 7832325061
field sqrsum 6.5352137076478e+014
field min 1
field max 125158
statistic Basic.rack[5].node[7].app 	"End-to-End Delay"
field count 125158
field mean 1.9768816882339e-005
field stddev 1.5120608119794e-005
field sum 2.4742255833598
field sqrsum 7.7527506570101e-005
field min 8.992e-006
field max 0.000197799169
statistic Basic.rack[5].node[7].app 	hops
field count 125158
field mean 3.9991530705189
field stddev 1.0000036363281
field sum 500526
field sqrsum 2126838
field min 3
field max 5
statistic Basic.rack[5].node[8].app 	throughput
field count 124659
field mean 62330
field stddev 35986.097940733
field sum 7769995470
field sqrsum 6.4573583352831e+014
field min 1
field max 124659
statistic Basic.rack[5].node[8].app 	"End-to-End Delay"
field count 124659
field mean 1.9801478491924e-005
field stddev 1.5186080901579e-005
field sum 2.4684325073248
field sqrsum 7.7626873814045e-005
field min 8.992e-006
field max 0.000204524745
statistic Basic.rack[5].node[8].app 	hops
field count 124659
field mean 3.9997673653727
field stddev 1.0000039839064
field sum 498607
field sqrsum 2118971
field min 3
field max 5
statistic Basic.rack[5].node[9].app 	throughput
field count 125059
field mean 62530
field stddev 36101.567994571
field sum 7819939270
field sqrsum 6.5197179675771e+014
field min 1
field max 125059
statistic Basic.rack[5].node[9].app 	"End-to-End Delay"
field count 125059
field mean 1.980517079819e-005
field stddev 1.5187234141008e-005
field sum 2.4768148548508
field sqrsum 7.7898629163229e-005
field min 8.992e-006
field max 0.000201875283
statistic Basic.rack[5].node[9].app 	hops
field count 125059
field mean 3.9990804340351
field stddev 1.0000035753343
field sum 500121
field sqrsum 2125083
field min 3
field max 5
statistic Basic.rack[5].eps.queue[0] 	dropsum
field count 0
field mean nan
field stddev nan
field sum 0
field sqrsum 0
field min nan
field max nan
statistic Basic.rack[5].eps.queue[1] 	dropsum
field count 0
field mean nan
field stddev nan
field sum 0
field sqrsum 0
field min nan
field max nan
statistic Basic.rack[5].eps.queue[2] 	dropsum
field count 0
field mean nan
field stddev nan
field sum 0
field sqrsum 0
field min nan
field max nan
statistic Basic.rack[5].eps.queue[3] 	dropsum
field count 0
field mean nan
field stddev nan
field sum 0
field sqrsum 0
field min nan
field max nan
statistic Basic.rack[6].node[0].app 	throughput
field count 125542
field mean 62771.5
field stddev 36240.998084582
field sum 7880459653
field sqrsum 6.5955507065784e+014
field min 1
field max 125542
statistic Basic.rack[6].node[0].app 	"End-to-End Delay"
field count 125542
field mean 9.6947365967382e-006
field stddev 7.2154460772074e-006
field sum 1.2170966218277
field sqrsum 1.8335429823228e-005
field min 8.496e-007
field max 9.3778744e-005
statistic Basic.rack[6].node[0].app 	hops
field count 125542
field mean 4.2498207771104
field stddev 0.8278603511404
field sum 533531
field sqrsum 2353451
field min 3
field max 5
statistic Basic.rack[6].node[1].app 	throughput
field count 124439
field mean 62220
field stddev 35922.589411121
field sum 7742594580
field sqrsum 6.4232306549194e+014
field min 1
field max 124439
statistic Basic.rack[6].node[1].app 	"End-to-End Delay"
field count 124439
field mean 9.6763432865236e-006
field stddev 7.1396979312293e-006
field sum 1.2041144822317
field sqrsum 1.7994687793958e-005
field min 8.496e-007
field max 9.4062046e-005
statistic Basic.rack[6].node[1].app 	hops
field count 124439
field mean 4.2509181205249
field stddev 0.82837178561743
field sum 528980
field sqrsum 2334040
field min 3
field max 5
statistic Basic.rack[6].node[2].app 	throughput
field count 124644
field mean 62322.5
field stddev 35981.767813714
field sum 7768125690
field sqrsum 6.4550276171147e+014
field min 1
field max 124644
statistic Basic.rack[6].node[2].app 	"End-to-End Delay"
field count 124644
field mean 9.6714036519024e-006
field stddev 7.1699100104361e-006
field sum 1.2054824367877
field sqrsum 1.806630591956e-005
field min 8.496e-007
field max 9.0399605e-005
statistic Basic.rack[6].node[2].app 	hops
field count 124644
field mean 4.2515243413241
field stddev 0.8274873334262
field sum 529927
field sqrsum 2338345
field min 3
field max 5
statistic Basic.rack[6].node[3].app 	throughput
field count 125546
field mean 62773.5
field stddev 36242.15278512
field sum 7880961831
field sqrsum 6.5961811634376e+014
field min 1
field max 125546
statistic Basic.rack[6].node[3].app 	"End-to-End Delay"
field count 125546
field mean 9.6753112631681e-006
field stddev 7.1503702111775e-006
field sum 1.2146966278457
field sqrsum 1.8171406882155e-005
field min 8.496e-007
field max 7.7476582e-005
statistic Basic.rack[6].node[3].app 	hops
field count 125546
field mean 4.2489685055677
field stddev 0.82913123920415
field sum 533441
field sqrsum 2352881
field min 3
field max 5
statistic Basic.rack[6].node[4].app 	throughput
field count 125083
field mean 62542
field stddev 36108.496197802
field sum 7822940986
field sqrsum 6.5234722588155e+014
field min 1
field max 125083
statistic Basic.rack[6].node[4].app 	"End-to-End Delay"
field count 125083
field mean 9.679728971193e-006
field stddev 7.1223381444574e-006
field sum 1.2107695389037
field sqrsum 1.8065043235116e-005
field min 8.496e-007
field max 7.5000658e-005
statistic Basic.rack[6].node[4].app 	hops
field count 125083
field mean 4.2496742163204
field stddev 0.82990215202804
field sum 531562
field sqrsum 2345114
field min 3
field max 5
statistic Basic.rack[6].node[5].app 	throughput
field count 125350
field mean 62675.5
field stddev 36185.572458739
field sum 7856373925
field sqrsum 6.5653359979048e+014
field min 1
field max 125350
statistic Basic.rack[6].node[5].app 	"End-to-End Delay"
field count 125350
field mean 9.6848335597901e-006
field stddev 7.1942774958326e-006
field sum 1.2139938867197
field sqrsum 1.8245095733775e-005
field min 8.496e-007
field max 7.960891e-005
statistic Basic.rack[6].node[5].app 	hops
field count 125350
field mean 4.2495013960909
field stddev 0.82886945780144
field sum 532675
field sqrsum 2349721
field min 3
field max 5
statistic Basic.rack[6].node[6].app 	throughput
field count 124543
field mean 62272
field stddev 35952.611625119
field sum 7755541696
field sqrsum 6.4393487147718e+014
field min 1
field max 124543
statistic Basic.rack[6].node[6].app 	"End-to-End Delay"
field count 124543
field mean 9.6603738172258e-006
field stddev 7.1500656209804e-006
field sum 1.2031319363187
field sqrsum 1.7989719519542e-005
field min 8.496e-007
field max 8.6153957e-005
statistic Basic.rack[6].node[6].app 	hops
field count 124543
field mean 4.2500983596027
field stddev 0.82877510541477
field sum 529320
field sqrsum 2335206
field min 3
field max 5
statistic Basic.rack[6].node[7].app 	throughput
field count 125199
field mean 62600
field stddev 36141.982513415
field sum 7837457400
field sqrsum 6.541638318342e+014
field min 1
field max 125199
statistic Basic.rack[6].node[7].app 	"End-to-End Delay"
field count 125199
field mean 9.6659463733634e-006
field stddev 7.1436122059601e-006
field sum 1.2101668199987
field sqrsum 1.8086411180253e-005
field min 8.496e-007
field max 7.6477801e-005
statistic Basic.rack[6].node[7].app 	hops
field count 125199
field mean 4.2504812338757
field stddev 0.82773546304744
field sum 532156
field sqrsum 2347698
field min 3
field max 5
statistic Basic.rack[6].node[8].app 	throughput
field count 125555
field mean 62778
field stddev 36244.750861332
field sum 7882091790
field sqrsum 6.5975998382623e+014
field min 1
field max 125555
statistic Basic.rack[6].node[8].app 	"End-to-End Delay"
field count 125555
field mean 9.7092602325174e-006
field stddev 7.1379997282409e-006
field sum 1.2190461684937
field sqrsum 1.8233143376631e-005
field min 8.496e-007
field max 8.7912217e-005
statistic Basic.rack[6].node[8].app 	hops
field count 125555
field mean 4.2516984588427
field stddev 0.83046851220013
field sum 533822
field sqrsum 2356242
field min 3
field max 5
statistic Basic.rack[6].node[9].app 	throughput
field count 123930
field mean 61965.5
field stddev 35775.653767611
field sum 7679384415
field sqrsum 6.344733001621e+014
field min 1
field max 123930
statistic Basic.rack[6].node[9].app 	"End-to-End Delay"
field count 123930
field mean 9.7166046820119e-006
field stddev 7.1321981516791e-006
field sum 1.2041788182417
field sqrsum 1.8004580956401e-005
field min 8.496e-007
field max 8.0227468e-005
statistic Basic.rack[6].node[9].app 	hops
field count 123930
field mean 4.2508512870169
field stddev 0.83035402877108
field sum 526808
field sqrsum 2324830
field min 3
field max 5
statistic Basic.rack[6].eps.queue[0] 	dropsum
field count 0
field mean nan
field stddev nan
field sum 0
field sqrsum 0
field min nan
field max nan
statistic Basic.rack[6].eps.queue[1] 	dropsum
field count 0
field mean nan
field stddev nan
field sum 0
field sqrsum 0
field min nan
field max nan
statistic Basic.rack[6].eps.queue[2] 	dropsum
field count 0
field mean nan
field stddev nan
field sum 0
field sqrsum 0
field min nan
field max nan
statistic Basic.rack[6].eps.queue[3] 	dropsum
field count 0
field mean nan
field stddev nan
field sum 0
field sqrsum 0
field min nan
field max nan
statistic Basic.rack[7].node[0].app 	throughput
field count 125093
field mean 62547
field stddev 36111.382949148
field sum 7824191871
field sqrsum 6.5250369720996e+014
field min 1
field max 125093
statistic Basic.rack[7].node[0].app 	"End-to-End Delay"
field count 125093
field mean 9.7162874519175e-006
field stddev 7.1477471698867e-006
field sum 1.2154395462227
field sqrsum 1.820054651875e-005
field min 8.496e-007
field max 7.5801918e-005
statistic Basic.rack[7].node[0].app 	hops
field count 125093
field mean 4.2534114618724
field stddev 0.82955190927435
field sum 532072
field sqrsum 2349204
field min 3
field max 5
statistic Basic.rack[7].node[1].app 	throughput
field count 124315
field mean 62158
field stddev 35886.793694431
field sum 7727171770
field sqrsum 6.4040481478229e+014
field min 1
field max 124315
statistic Basic.rack[7].node[1].app 	"End-to-End Delay"
field count 124315
field mean 9.7101766454065e-006
field stddev 7.1555628947841e-006
field sum 1.2071206096737
field sqrsum 1.808648976778e-005
field min 8.496e-007
field max 8.0979601e-005
statistic Basic.rack[7].node[1].app 	hops
field count 124315
field mean 4.2518441056992
field stddev 0.82927934905708
field sum 528568
field sqrsum 2332880
field min 3
field max 5
statistic Basic.rack[7].node[2].app 	throughput
field count 124735
field mean 62368
field stddev 36008.037250962
field sum 7779472480
field sqrsum 6.4691759301936e+014
field min 1
field max 124735
statistic Basic.rack[7].node[2].app 	"End-to-End Delay"
field count 124735
field mean 9.6700409668236e-006
field stddev 7.1505425869378e-006
field sum 1.2061925599967
field sqrsum 1.8041613231027e-005
field min 8.496e-007
field max 7.8906482e-005
statistic Basic.rack[7].node[2].app 	hops
field count 124735
field mean 4.2515973864593
field stddev 0.82834600021151
field sum 530323
field sqrsum 2340307
field min 3
field max 5
statistic Basic.rack[7].node[3].app 	throughput
field count 124427
field mean 62214
field stddev 35919.125309506
field sum 7741101378
field sqrsum 6.4213726114073e+014
field min 1
field max 124427
statistic Basic.rack[7].node[3].app 	"End-to-End Delay"
field count 124427
field mean 9.689054208538e-006
field stddev 7.1279399343045e-006
field sum 1.2055799480058
field sqrsum 1.8002706911432e-005
field min 8.496e-007
field max 8.2755052e-005
statistic Basic.rack[7].node[3].app 	hops
field count 124427
field mean 4.2505886985944
field stddev 0.82958145723778
field sum 528888
field sqrsum 2333716
field min 3
field max 5
statistic Basic.rack[7].node[4].app 	throughput
field count 125177
field mean 62589
field stddev 36135.631660454
field sum 7834703253
field sqrsum 6.538190443016e+014
field min 1
field max 125177
statistic Basic.rack[7].node[4].app 	"End-to-End Delay"
field count 125177
field mean 9.6839884819233e-006
field stddev 7.1395040825885e-006
field sum 1.2122126262017
field sqrsum 1.8119589091206e-005
field min 8.496e-007
field max 9.5264432e-005
statistic Basic.rack[7].node[4].app 	hops
field count 125177
field mean 4.2473857018462
field stddev 0.83065645704873
field sum 531675
field sqrsum 2344599
field min 3
field max 5
statistic Basic.rack[7].node[5].app 	throughput
field count 125552
field mean 62776.5
field stddev 36243.884835928
field sum 7881715128
field sqrsum 6.5971269240548e+014
field min 1
field max 125552
statistic Basic.rack[7].node[5].app 	"End-to-End Delay"
field count 125552
field mean 9.6851663630107e-006
field stddev 7.1580247301617e-006
field sum 1.2159920072087
field sqrsum 1.8209981402847e-005
field min 8.496e-007
field max 8.161373e-005
statistic Basic.rack[7].node[5].app 	hops
field count 125552
field mean 4.2544921626099
field stddev 0.82775327112366
field sum 534160
field sqrsum 2358604
field min 3
field max 5
statistic Basic.rack[7].node[6].app 	throughput
field count 125326
field mean 62663.5
field stddev 36178.644255509
field sum 7853365801
field sqrsum 6.5615656603935e+014
field min 1
field max 125326
statistic Basic.rack[7].node[6].app 	"End-to-End Delay"
field count 125326
field mean 9.7045091566611e-006
field stddev 7.1682703787078e-006
field sum 1.2162273145677
field sqrsum 1.8242601471158e-005
field min 8.496e-007
field max 7.5740898e-005
statistic Basic.rack[7].node[6].app 	hops
field count 125326
field mean 4.2511529929943
field stddev 0.82972267888619
field sum 532780
field sqrsum 2351208
field min 3
field max 5
statistic Basic.rack[7].node[7].app 	throughput
field count 124947
field mean 62474
field stddev 36069.236379497
field sum 7805938878
field sqrsum 6.5022169863927e+014
field min 1
field max 124947
statistic Basic.rack[7].node[7].app 	"End-to-End Delay"
field count 124947
field mean 9.6679435007864e-006
field stddev 7.158676416445e-006
field sum 1.2079805365928
field sqrsum 1.8081751263255e-005
field min 8.496e-007
field max 8.0192819e-005
statistic Basic.rack[7].node[7].app 	hops
field count 124947
field mean 4.2497458922583
field stddev 0.82831264112521
field sum 530993
field sqrsum 2342311
field min 3
field max 5
statistic Basic.rack[7].node[8].app 	throughput
field count 125016
field mean 62508.5
field stddev 36089.154963784
field sum 7814562636
field sqrsum 6.51299513189e+014
field min 1
field max 125016
statistic Basic.rack[7].node[8].app 	"End-to-End Delay"
field count 125016
field mean 9.7006641572177e-006
field stddev 7.1319208591821e-006
field sum 1.2127382302787
field sqrsum 1.8123166139684e-005
field min 8.496e-007
field max 8.035524e-005
statistic Basic.rack[7].node[8].app 	hops
field count 125016
field mean 4.2498720163819
field stddev 0.83000802045547
field sum 531302
field sqrsum 2344090
field min 3
field max 5
statistic Basic.rack[7].node[9].app 	throughput
field count 125184
field mean 62592.5
field stddev 36137.652386396
field sum 7835579520
field sqrsum 6.5392873628096e+014
field min 1
field max 125184
statistic Basic.rack[7].node[9].app 	"End-to-End Delay"
field count 125184
field mean 9.6505193243125e-006
field stddev 7.113385411281e-006
field sum 1.2080906110947
field sqrsum 1.7992993135186e-005
field min 8.496e-007
field max 8.0528059e-005
statistic Basic.rack[7].node[9].app 	hops
field count 125184
field mean 4.2485221753579
field stddev 0.82945439220105
field sum 531847
field sqrsum 2345689
field min 3
field max 5
statistic Basic.rack[7].eps.queue[0] 	dropsum
field count 0
field mean nan
field stddev nan
field sum 0
field sqrsum 0
field min nan
field max nan
statistic Basic.rack[7].eps.queue[1] 	dropsum
field count 0
field mean nan
field stddev nan
field sum 0
field sqrsum 0
field min nan
field max nan
statistic Basic.rack[7].eps.queue[2] 	dropsum
field count 0
field mean nan
field stddev nan
field sum 0
field sqrsum 0
field min nan
field max nan
statistic Basic.rack[7].eps.queue[3] 	dropsum
field count 0
field mean nan
field stddev nan
field sum 0
field sqrsum 0
field min nan
field max nan
statistic Basic.rack[8].node[0].app 	throughput
field count 125172
field mean 62586.5
field stddev 36134.188284781
field sum 7834077378
field sqrsum 6.5374070039847e+014
field min 1
field max 125172
statistic Basic.rack[8].node[0].app 	"End-to-End Delay"
field count 125172
field mean 1.9783179837814e-005
field stddev 1.4932892403347e-005
field sum 2.4763001866588
field sqrsum 7.6901132874443e-005
field min 8.992e-006
field max 0.000174532766
statistic Basic.rack[8].node[0].app 	hops
field count 125172
field mean 3.9979068801329
field stddev 1.000001803941
field sum 500426
field sqrsum 2125828
field min 3
field max 5
statistic Basic.rack[8].node[1].app 	throughput
field count 124631
field mean 62316
field stddev 35978.015036964
field sum 7766505396
field sqrsum 6.4530081150772e+014
field min 1
field max 124631
statistic Basic.rack[8].node[1].app 	"End-to-End Delay"
field count 124631
field mean 1.9687927737679e-005
field stddev 1.4808664912812e-005
field sum 2.4537261218747
field sqrsum 7.5639712412115e-005
field min 8.992e-006
field max 0.000165517339
statistic Basic.rack[8].node[1].app 	hops
field count 124631
field mean 3.9959801333537
field stddev 0.99999593213812
field sum 498023
field sqrsum 2114719
field min 3
field max 5
statistic Basic.rack[8].node[2].app 	throughput
field count 125077
field mean 62539
field stddev 36106.764146994
field sum 7822190503
field sqrsum 6.5225335509266e+014
field min 1
field max 125077
statistic Basic.rack[8].node[2].app 	"End-to-End Delay"
field count 125077
field mean 1.9611876774641e-005
field stddev 1.4821973024964e-005
field sum 2.4529947113417
field sqrsum 7.5585887058987e-005
field min 8.992e-006
field max 0.000165196714
statistic Basic.rack[8].node[2].app 	hops
field count 125077
field mean 3.9999120541746
field stddev 1.0000039936942
field sum 500297
field sqrsum 2126221
field min 3
field max 5
statistic Basic.rack[8].node[3].app 	throughput
field count 124977
field mean 62489
field stddev 36077.896633535
field sum 7809687753
field sqrsum 6.506901674337e+014
field min 1
field max 124977
statistic Basic.rack[8].node[3].app 	"End-to-End Delay"
field count 124977
field mean 1.9714124628065e-005
field stddev 1.493635052549e-005
field sum 2.4638121536417
field sqrsum 7.6453366464964e-005
field min 8.992e-006
field max 0.000179840724
statistic Basic.rack[8].node[3].app 	hops
field count 124977
field mean 3.9979436216264
field stddev 1.0000018864034
field sum 499651
field sqrsum 2122553
field min 3
field max 5
statistic Basic.rack[8].node[4].app 	throughput
field count 124763
field mean 62382
field stddev 36016.120154731
field sum 7782965466
field sqrsum 6.4735334127819e+014
field min 1
field max 124763
statistic Basic.rack[8].node[4].app 	"End-to-End Delay"
field count 124763
field mean 1.9780777776702e-005
field stddev 1.4985955527041e-005
field sum 2.4679091777547
field sqrsum 7.6836071131151e-005
field min 8.992e-006
field max 0.00016053764
statistic Basic.rack[8].node[4].app 	hops
field count 124763
field mean 4.0049614068273
field stddev 0.99999169971858
field sum 499671
field sqrsum 2125923
field min 3
field max 5
statistic Basic.rack[8].node[5].app 	throughput
field count 125467
field mean 62734
field stddev 36219.347449487
field sum 7871046778
field sqrsum 6.5837370774581e+014
field min 1
field max 125467
statistic Basic.rack[8].node[5].app 	"End-to-End Delay"
field count 125467
field mean 1.9691246644558e-005
field stddev 1.4886071545536e-005
field sum 2.4706016427528
field sqrsum 7.645188039399e-005
field min 8.992e-006
field max 0.000173989129
statistic Basic.rack[8].node[5].app 	hops
field count 125467
field mean 4.0016179553189
field stddev 1.0000026762397
field sum 502071
field sqrsum 2134563
field min 3
field max 5
statistic Basic.rack[8].node[6].app 	throughput
field count 124304
field mean 62152.5
field stddev 35883.618267951
field sum 7725804360
field sqrsum 6.4023483204508e+014
field min 1
field max 124304
statistic Basic.rack[8].node[6].app 	"End-to-End Delay"
field count 124304
field mean 1.9691442954303e-005
field stddev 1.4889978855995e-005
field sum 2.4477251249917
field sqrsum 7.5758640563265e-005
field min 8.992e-006
field max 0.000182054353
statistic Basic.rack[8].node[6].app 	hops
field count 124304
field mean 3.9992116102458
field stddev 1.0000037116405
field sum 497118
field sqrsum 2112384
field min 3
field max 5
statistic Basic.rack[8].node[7].app 	throughput
field count 125236
field mean 62618.5
field stddev 36152.663493395
field sum 7842090466
field sqrsum 6.5474397509681e+014
field min 1
field max 125236
statistic Basic.rack[8].node[7].app 	"End-to-End Delay"
field count 125236
field mean 1.9753421191996e-005
field stddev 1.4922535107169e-005
field sum 2.4738394564008
field sqrsum 7.6754379779442e-005
field min 8.992e-006
field max 0.000153985566
statistic Basic.rack[8].node[7].app 	hops
field count 125236
field mean 4.0002395477339
field stddev 1.0000039637945
field sum 500974
field sqrsum 2129252
field min 3
field max 5
statistic Basic.rack[8].node[8].app 	throughput
field count 124797
field mean 62399
field stddev 36025.935109307
field sum 7787208003
field sqrsum 6.478827271696e+014
field min 1
field max 124797
statistic Basic.rack[8].node[8].app 	"End-to-End Delay"
field count 124797
field mean 1.9674032658259e-005
field stddev 1.4883526869494e-005
field sum 2.4552602536527
field sqrsum 7.5949601972353e-005
field min 8.992e-006
field max 0.00016723519
statistic Basic.rack[8].node[8].app 	hops
field count 124797
field mean 4.0003445595647
field stddev 1.0000039471698
field sum 499231
field sqrsum 2121893
field min 3
field max 5
statistic Basic.rack[8].node[9].app 	throughput
field count 124991
field mean 62496
field stddev 36081.938085419
field sum 7811437536
field sqrsum 6.509088631873e+014
field min 1
field max 124991
statistic Basic.rack[8].node[9].app 	"End-to-End Delay"
field count 124991
field mean 1.9746866983677e-005
field stddev 1.4920650893387e-005
field sum 2.4681806511567
field sqrsum 7.6564836637137e-005
field min 8.992e-006
field max 0.000172797536
statistic Basic.rack[8].node[9].app 	hops
field count 124991
field mean 3.9973838116344
field stddev 1.0000005780717
field sum 499637
field sqrsum 2122231
field min 3
field max 5
statistic Basic.rack[8].eps.queue[0] 	dropsum
field count 0
field mean nan
field stddev nan
field sum 0
field sqrsum 0
field min nan
field max nan
statistic Basic.rack[8].eps.queue[1] 	dropsum
field count 0
field mean nan
field stddev nan
field sum 0
field sqrsum 0
field min nan
field max nan
statistic Basic.rack[8].eps.queue[2] 	dropsum
field count 0
field mean nan
field stddev nan
field sum 0
field sqrsum 0
field min nan
field max nan
statistic Basic.rack[8].eps.queue[3] 	dropsum
field count 0
field mean nan
field stddev nan
field sum 0
field sqrsum 0
field min nan
field max nan
statistic Basic.rack[9].node[0].app 	throughput
field count 124396
field mean 62198.5
field stddev 35910.176380334
field sum 7737244606
field sqrsum 6.4165743242019e+014
field min 1
field max 124396
statistic Basic.rack[9].node[0].app 	"End-to-End Delay"
field count 124396
field mean 1.976162852262e-005
field stddev 1.5103938338211e-005
field sum 2.4582675416998
field sqrsum 7.6957471117085e-005
field min 8.992e-006
field max 0.000212090424
statistic Basic.rack[9].node[0].app 	hops
field count 124396
field mean 3.9999678446252
field stddev 1.0000040189291
field sum 497580
field sqrsum 2114700
field min 3
field max 5
statistic Basic.rack[9].node[1].app 	throughput
field count 124914
field mean 62457.5
field stddev 36059.710100055
field sum 7801816155
field sqrsum 6.4970664272916e+014
field min 1
field max 124914
statistic Basic.rack[9].node[1].app 	"End-to-End Delay"
field count 124914
field mean 1.9732169689889e-005
field stddev 1.5033519999848e-005
field sum 2.4648242446428
field sqrsum 7.6867508114321e-005
field min 8.992e-006
field max 0.000194472166
statistic Basic.rack[9].node[1].app 	hops
field count 124914
field mean 4.0016811566358
field stddev 1.0000025896275
field sum 499866
field sqrsum 2125218
field min 3
field max 5
statistic Basic.rack[9].node[2].app 	throughput
field count 125578
field mean 62789.5
field stddev 36251.390389427
field sum 7884979831
field sqrsum 6.6012262647149e+014
field min 1
field max 125578
statistic Basic.rack[9].node[2].app 	"End-to-End Delay"
field count 125578
field mean 1.9739200513225e-005
field stddev 1.5129803942311e-005
field sum 2.4788093220498
field sqrsum 7.7675666786742e-005
field min 8.992e-006
field max 0.000197146393
statistic Basic.rack[9].node[2].app 	hops
field count 125578
field mean 4.0052397712975
field stddev 0.9999902538624
field sum 502970
field sqrsum 2140090
field min 3
field max 5
statistic Basic.rack[9].node[3].app 	throughput
field count 125107
field mean 62554
field stddev 36115.424401032
field sum 7825943278
field sqrsum 6.5272279910159e+014
field min 1
field max 125107
statistic Basic.rack[9].node[3].app 	"End-to-End Delay"
field count 125107
field mean 1.9734881258712e-005
field stddev 1.4993601564651e-005
field sum 2.4689717896337
field sqrsum 7.6849705741785e-005
field min 8.992e-006
field max 0.00018264328
statistic Basic.rack[9].node[3].app 	hops
field count 125107
field mean 4.0023260089364
field stddev 1.0000012914296
field sum 500719
field sqrsum 2129147
field min 3
field max 5
statistic Basic.rack[9].node[4].app 	throughput
field count 124863
field mean 62432
field stddev 36044.98766819
field sum 7795446816
field sqrsum 6.4891118233974e+014
field min 1
field max 124863
statistic Basic.rack[9].node[4].app 	"End-to-End Delay"
field count 124863
field mean 1.9767526249857e-005
field stddev 1.5101447458271e-005
field sum 2.4682326301358
field sqrsum 7.7266096311113e-005
field min 8.992e-006
field max 0.000214062236
statistic Basic.rack[9].node[4].app 	hops
field count 124863
field mean 4.0084973130551
field stddev 0.99996790145201
field sum 500513
field sqrsum 2131159
field min 3
field max 5
statistic Basic.rack[9].node[5].app 	throughput
field count 125189
field mean 62595
field stddev 36139.095762069
field sum 7836205455
field sqrsum 6.5400709520582e+014
field min 1
field max 125189
statistic Basic.rack[9].node[5].app 	"End-to-End Delay"
field count 125189
field mean 1.967146509821e-005
field stddev 1.5016446008782e-005
field sum 2.4626510441798
field sqrsum 7.6673053212824e-005
field min 8.992e-006
field max 0.000205163257
statistic Basic.rack[9].node[5].app 	hops
field count 125189
field mean 4.0003594565018
field stddev 1.0000039293803
field sum 500801
field sqrsum 2128573
field min 3
field max 5
statistic Basic.rack[9].node[6].app 	throughput
field count 125020
field mean 62510.5
field stddev 36090.309664322
field sum 7815062710
field sqrsum 6.5136203169037e+014
field min 1
field max 125020
statistic Basic.rack[9].node[6].app 	"End-to-End Delay"
field count 125020
field mean 1.975915195323e-005
field stddev 1.5062915670991e-005
field sum 2.4702891771928
field sqrsum 7.7176558721634e-005
field min 8.992e-006
field max 0.000217777143
statistic Basic.rack[9].node[6].app 	hops
field count 125020
field mean 4.0058390657495
field stddev 0.99998695182619
field sum 500810
field sqrsum 2131180
field min 3
field max 5
statistic Basic.rack[9].node[7].app 	throughput
field count 125013
field mean 62507
field stddev 36088.28893838
field sum 7814187591
field sqrsum 6.5125262693832e+014
field min 1
field max 125013
statistic Basic.rack[9].node[7].app 	"End-to-End Delay"
field count 125013
field mean 1.9723474757527e-005
field stddev 1.507915922285e-005
field sum 2.4656907498628
field sqrsum 7.705734819581e-005
field min 8.992e-006
field max 0.000221229361
statistic Basic.rack[9].node[7].app 	hops
field count 125013
field mean 4.0012398710534
field stddev 1.0000032309646
field sum 500207
field sqrsum 2126461
field min 3
field max 5
statistic Basic.rack[9].node[8].app 	throughput
field count 124834
field mean 62417.5
field stddev 36036.616089287
field sum 7791826195
field sqrsum 6.4845915142648e+014
field min 1
field max 124834
statistic Basic.rack[9].node[8].app 	"End-to-End Delay"
field count 124834
field mean 1.9773118315225e-005
field stddev 1.517555818694e-005
field sum 2.4683574517627
field sqrsum 7.7555860030051e-005
field min 8.992e-006
field max 0.000219565616
statistic Basic.rack[9].node[8].app 	hops
field count 124834
field mean 3.9962350000801
field stddev 0.99999691767742
field sum 498866
field sqrsum 2118418
field min 3
field max 5
statistic Basic.rack[9].node[9].app 	throughput
field count 125471
field mean 62736
field stddev 36220.502150025
field sum 7871548656
field sqrsum 6.5843667812754e+014
field min 1
field max 125471
statistic Basic.rack[9].node[9].app 	"End-to-End Delay"
field count 125471
field mean 1.977853950476e-005
field stddev 1.5230286604793e-005
field sum 2.4816331302018
field sqrsum 7.8187304626165e-005
field min 8.992e-006
field max 0.000215561476
statistic Basic.rack[9].node[9].app 	hops
field count 125471
field mean 3.997090961258
field stddev 0.99999975372938
field sum 501519
field sqrsum 2130087
field min 3
field max 5
statistic Basic.rack[9].eps.queue[0] 	dropsum
field count 0
field mean nan
field stddev nan
field sum 0
field sqrsum 0
field min nan
field max nan
statistic Basic.rack[9].eps.queue[1] 	dropsum
field count 0
field mean nan
field stddev nan
field sum 0
field sqrsum 0
field min nan
field max nan
statistic Basic.rack[9].eps.queue[2] 	dropsum
field count 0
field mean nan
field stddev nan
field sum 0
field sqrsum 0
field min nan
field max nan
statistic Basic.rack[9].eps.queue[3] 	dropsum
field count 0
field mean nan
field stddev nan
field sum 0
field sqrsum 0
field min nan
field max nan
statistic Basic.rack[10].node[0].app 	throughput
field count 124842
field mean 62421.5
field stddev 36038.925490364
field sum 7792824903
field sqrsum 6.4858382863518e+014
field min 1
field max 124842
statistic Basic.rack[10].node[0].app 	"End-to-End Delay"
field count 124842
field mean 9.6479733783642e-006
field stddev 7.1480280161579e-006
field sum 1.2044722925017
field sqrsum 1.7999380683588e-005
field min 8.496e-007
field max 7.9254331e-005
statistic Basic.rack[10].node[0].app 	hops
field count 124842
field mean 4.2508771086654
field stddev 0.82742678678182
field sum 530688
field sqrsum 2341360
field min 3
field max 5
statistic Basic.rack[10].node[1].app 	throughput
field count 124844
field mean 62422.5
field stddev 36039.502840633
field sum 7793074590
field sqrsum 6.4861500043417e+014
field min 1
field max 124844
statistic Basic.rack[10].node[1].app 	"End-to-End Delay"
field count 124844
field mean 9.6385753902928e-006
field stddev 7.1022831949138e-006
field sum 1.2033183060257
field sqrsum 1.7895658072769e-005
field min 8.496e-007
field max 8.1037559e-005
statistic Basic.rack[10].node[1].app 	hops
field count 124844
field mean 4.2500320399859
field stddev 0.82857002027138
field sum 530591
field sqrsum 2340737
field min 3
field max 5
statistic Basic.rack[10].node[2].app 	throughput
field count 125471
field mean 62736
field stddev 36220.502150025
field sum 7871548656
field sqrsum 6.5843667812754e+014
field min 1
field max 125471
statistic Basic.rack[10].node[2].app 	"End-to-End Delay"
field count 125471
field mean 9.6723978879082e-006
field stddev 7.1741412404867e-006
field sum 1.2136054353937
field sqrsum 1.8196202569556e-005
field min 8.496e-007
field max 7.9752249e-005
statistic Basic.rack[10].node[2].app 	hops
field count 125471
field mean 4.2553896916419
field stddev 0.82660343237059
field sum 533928
field sqrsum 2357802
field min 3
field max 5
statistic Basic.rack[10].node[3].app 	throughput
field count 124784
field mean 62392.5
field stddev 36022.182332557
field sum 7785585720
field sqrsum 6.4768028085156e+014
field min 1
field max 124784
statistic Basic.rack[10].node[3].app 	"End-to-End Delay"
field count 124784
field mean 9.7013823527193e-006
field stddev 7.1328246975451e-006
field sum 1.2105772955017
field sqrsum 1.809288138209e-005
field min 8.496e-007
field max 8.8276657e-005
statistic Basic.rack[10].node[3].app 	hops
field count 124784
field mean 4.2548563918451
field stddev 0.82845394283339
field sum 530938
field sqrsum 2344708
field min 3
field max 5
statistic Basic.rack[10].node[4].app 	throughput
field count 124921
field mean 62461
field stddev 36061.730825997
field sum 7802690581
field sqrsum 6.4981587427626e+014
field min 1
field max 124921
statistic Basic.rack[10].node[4].app 	"End-to-End Delay"
field count 124921
field mean 9.7160190560892e-006
field stddev 7.1673019654002e-006
field sum 1.2137348165057
field sqrsum 1.8209838171715e-005
field min 8.496e-007
field max 9.8719341e-005
statistic Basic.rack[10].node[4].app 	hops
field count 124921
field mean 4.2520552989489
field stddev 0.82966789841588
field sum 531171
field sqrsum 2344557
field min 3
field max 5
statistic Basic.rack[10].node[5].app 	throughput
field count 125227
field mean 62614
field stddev 36150.065417184
field sum 7840963378
field sqrsum 6.5460282761233e+014
field min 1
field max 125227
statistic Basic.rack[10].node[5].app 	"End-to-End Delay"
field count 125227
field mean 9.646617179424e-006
field stddev 7.0999194710561e-006
field sum 1.2080169295277
field sqrsum 1.796577632892e-005
field min 8.496e-007
field max 8.5208818e-005
statistic Basic.rack[10].node[5].app 	hops
field count 125227
field mean 4.2477660568408
field stddev 0.8295542818893
field sum 531935
field sqrsum 2345711
field min 3
field max 5
statistic Basic.rack[10].node[6].app 	throughput
field count 124370
field mean 62185.5
field stddev 35902.670826834
field sum 7734010635
field sqrsum 6.4125517978684e+014
field min 1
field max 124370
statistic Basic.rack[10].node[6].app 	"End-to-End Delay"
field count 124370
field mean 9.704449450886e-006
field stddev 7.1447788414606e-006
field sum 1.2069423782067
field sqrsum 1.806148318349e-005
field min 8.496e-007
field max 8.1702095e-005
statistic Basic.rack[10].node[6].app 	hops
field count 124370
field mean 4.2528905684651
field stddev 0.82904175332722
field sum 528932
field sqrsum 2334970
field min 3
field max 5
statistic Basic.rack[10].node[7].app 	throughput
field count 124837
field mean 62419
field stddev 36037.482114691
field sum 7792200703
field sqrsum 6.4850590350718e+014
field min 1
field max 124837
statistic Basic.rack[10].node[7].app 	"End-to-End Delay"
field count 124837
field mean 9.6483393606123e-006
field stddev 7.1876540445632e-006
field sum 1.2044697407608
field sqrsum 1.80704565127e-005
field min 8.496e-007
field max 8.2324459e-005
statistic Basic.rack[10].node[7].app 	hops
field count 124837
field mean 4.249333130402
field stddev 0.8274565618493
field sum 530474
field sqrsum 2339634
field min 3
field max 5
statistic Basic.rack[10].node[8].app 	throughput
field count 125274
field mean 62637.5
field stddev 36163.63314851
field sum 7846850175
field sqrsum 6.5534015483202e+014
field min 1
field max 125274
statistic Basic.rack[10].node[8].app 	"End-to-End Delay"
field count 125274
field mean 9.673412905541e-006
field stddev 7.1558557048091e-006
field sum 1.2118271283287
field sqrsum 1.8137267352913e-005
field min 8.496e-007
field max 9.6399241e-005
statistic Basic.rack[10].node[8].app 	hops
field count 125274
field mean 4.2510816290691
field stddev 0.82871943921269
field sum 532550
field sqrsum 2349948
field min 3
field max 5
statistic Basic.rack[10].node[9].app 	throughput
field count 125537
field mean 62769
field stddev 36239.554708909
field sum 7879831953
field sqrsum 6.5947626919982e+014
field min 1
field max 125537
statistic Basic.rack[10].node[9].app 	"End-to-End Delay"
field count 125537
field mean 9.6940292044154e-006
field stddev 7.1868778815931e-006
field sum 1.2169593442347
field sqrsum 1.8281326184749e-005
field min 8.496e-007
field max 8.1133172e-005
statistic Basic.rack[10].node[9].app 	hops
field count 125537
field mean 4.2500298716713
field stddev 0.82860870797472
field sum 533536
field sqrsum 2353736
field min 3
field max 5
statistic Basic.rack[10].eps.queue[0] 	dropsum
field count 0
field mean nan
field stddev nan
field sum 0
field sqrsum 0
field min nan
field max nan
statistic Basic.rack[10].eps.queue[1] 	dropsum
field count 0
field mean nan
field stddev nan
field sum 0
field sqrsum 0
field min nan
field max nan
statistic Basic.rack[10].eps.queue[2] 	dropsum
field count 0
field mean nan
field stddev nan
field sum 0
field sqrsum 0
field min nan
field max nan
statistic Basic.rack[10].eps.queue[3] 	dropsum
field count 0
field mean nan
field stddev nan
field sum 0
field sqrsum 0
field min nan
field max nan
statistic Basic.rack[11].node[0].app 	throughput
field count 124626
field mean 62313.5
field stddev 35976.571661291
field sum 7765882251
field sqrsum 6.452231495695e+014
field min 1
field max 124626
statistic Basic.rack[11].node[0].app 	"End-to-End Delay"
field count 124626
field mean 9.6541963609981e-006
field stddev 7.1239216802382e-006
field sum 1.2031638756857
field sqrsum 1.7940331476061e-005
field min 8.496e-007
field max 7.753908e-005
statistic Basic.rack[11].node[0].app 	hops
field count 124626
field mean 4.2475085455683
field stddev 0.82944484293387
field sum 529350
field sqrsum 2334158
field min 3
field max 5
statistic Basic.rack[11].node[1].app 	throughput
field count 124911
field mean 62456
field stddev 36058.844074651
field sum 7801441416
field sqrsum 6.4965983295646e+014
field min 1
field max 124911
statistic Basic.rack[11].node[1].app 	"End-to-End Delay"
field count 124911
field mean 9.6430134658336e-006
field stddev 7.1511712626162e-006
field sum 1.2045184550307
field sqrsum 1.8002991452577e-005
field min 8.496e-007
field max 7.8955567e-005
statistic Basic.rack[11].node[1].app 	hops
field count 124911
field mean 4.2474962173067
field stddev 0.82783250499618
field sum 530559
field sqrsum 2339149
field min 3
[...]
field sum 7809312825
field sqrsum 6.5064331043198e+014
field min 1
field max 124974
statistic Basic.rack[13].node[2].app 	"End-to-End Delay"
field count 124974
field mean 1.9682291926983e-005
field stddev 1.4891533462303e-005
field sum 2.4597747512828
field sqrsum 7.6127738376973e-005
field min 8.992e-006
field max 0.000171641963
statistic Basic.rack[13].node[2].app 	hops
field count 124974
field mean 3.9989757869637
field stddev 1.0000034763478
field sum 499768
field sqrsum 2123534
field min 3
field max 5
statistic Basic.rack[13].node[3].app 	throughput
field count 124601
field mean 62301
field stddev 35969.354782926
field sum 7762766901
field sqrsum 6.448349333433e+014
field min 1
field max 124601
statistic Basic.rack[13].node[3].app 	"End-to-End Delay"
field count 124601
field mean 1.9788404707914e-005
field stddev 1.5048191167932e-005
field sum 2.4656550150108
field sqrsum 7.7006807262487e-005
field min 8.992e-006
field max 0.00017325297
statistic Basic.rack[13].node[3].app 	hops
field count 124601
field mean 3.9973916742241
field stddev 1.0000006111319
field sum 498079
field sqrsum 2115617
field min 3
field max 5
statistic Basic.rack[13].node[4].app 	throughput
field count 124671
field mean 62336
field stddev 35989.562042348
field sum 7771491456
field sqrsum 6.4592233137114e+014
field min 1
field max 124671
statistic Basic.rack[13].node[4].app 	"End-to-End Delay"
field count 124671
field mean 1.9800319780075e-005
field stddev 1.4979592995578e-005
field sum 2.4685256673017
field sqrsum 7.6852075278962e-005
field min 8.992e-006
field max 0.000170383915
statistic Basic.rack[13].node[4].app 	hops
field count 124671
field mean 3.9967835342622
field stddev 0.99999883771986
field sum 498283
field sqrsum 2116199
field min 3
field max 5
statistic Basic.rack[13].node[5].app 	throughput
field count 125045
field mean 62523
field stddev 36097.526542687
field sum 7818188535
field sqrsum 6.517528629689e+014
field min 1
field max 125045
statistic Basic.rack[13].node[5].app 	"End-to-End Delay"
field count 125045
field mean 1.9736704522874e-005
field stddev 1.4977232686158e-005
field sum 2.4679762170628
field sqrsum 7.6759274702514e-005
field min 8.992e-006
field max 0.000160669763
statistic Basic.rack[13].node[5].app 	hops
field count 125045
field mean 3.996713183254
field stddev 0.99999859696615
field sum 499769
field sqrsum 2122477
field min 3
field max 5
statistic Basic.rack[13].node[6].app 	throughput
field count 125056
field mean 62528.5
field stddev 36100.701969168
field sum 7819564096
field sqrsum 6.5192487824762e+014
field min 1
field max 125056
statistic Basic.rack[13].node[6].app 	"End-to-End Delay"
field count 125056
field mean 1.9753635616778e-005
field stddev 1.494280152396e-005
field sum 2.4703106556918
field sqrsum 7.6720812028293e-005
field min 8.992e-006
field max 0.000164544714
statistic Basic.rack[13].node[6].app 	hops
field count 125056
field mean 3.9997121289662
field stddev 1.0000039567977
field sum 500188
field sqrsum 2125664
field min 3
field max 5
statistic Basic.rack[13].node[7].app 	throughput
field count 125022
field mean 62511.5
field stddev 36090.887014591
field sum 7815312753
field sqrsum 6.513932924413e+014
field min 1
field max 125022
statistic Basic.rack[13].node[7].app 	"End-to-End Delay"
field count 125022
field mean 1.9768532982057e-005
field stddev 1.4972603834609e-005
field sum 2.4715015304828
field sqrsum 7.6885025475252e-005
field min 8.992e-006
field max 0.000168379619
statistic Basic.rack[13].node[7].app 	hops
field count 125022
field mean 3.9972324870823
field stddev 1.0000001697336
field sum 499742
field sqrsum 2122606
field min 3
field max 5
statistic Basic.rack[13].node[8].app 	throughput
field count 125254
field mean 62627.5
field stddev 36157.859645818
field sum 7844344885
field sqrsum 6.5502633093216e+014
field min 1
field max 125254
statistic Basic.rack[13].node[8].app 	"End-to-End Delay"
field count 125254
field mean 1.9736148246977e-005
field stddev 1.4891873815753e-005
field sum 2.4720315125268
field sqrsum 7.6565475900618e-005
field min 8.992e-006
field max 0.000164755175
statistic Basic.rack[13].node[8].app 	hops
field count 125254
field mean 4.0022035224424
field stddev 1.0000015641442
field sum 501292
field sqrsum 2131526
field min 3
field max 5
statistic Basic.rack[13].node[9].app 	throughput
field count 125478
field mean 62739.5
field stddev 36222.522875968
field sum 7872426981
field sqrsum 6.5854688595694e+014
field min 1
field max 125478
statistic Basic.rack[13].node[9].app 	"End-to-End Delay"
field count 125478
field mean 1.9757242593345e-005
field stddev 1.5001831522622e-005
field sum 2.4790992861277
field sqrsum 7.7219385848843e-005
field min 8.992e-006
field max 0.000171694718
statistic Basic.rack[13].node[9].app 	hops
field count 125478
field mean 3.9933374774861
field stddev 0.99998178984822
field sum 501076
field sqrsum 2126438
field min 3
field max 5
statistic Basic.rack[13].eps.queue[0] 	dropsum
field count 0
field mean nan
field stddev nan
field sum 0
field sqrsum 0
field min nan
field max nan
statistic Basic.rack[13].eps.queue[1] 	dropsum
field count 0
field mean nan
field stddev nan
field sum 0
field sqrsum 0
field min nan
field max nan
statistic Basic.rack[13].eps.queue[2] 	dropsum
field count 0
field mean nan
field stddev nan
field sum 0
field sqrsum 0
field min nan
field max nan
statistic Basic.rack[13].eps.queue[3] 	dropsum
field count 0
field mean nan
field stddev nan
field sum 0
field sqrsum 0
field min nan
field max nan
statistic Basic.rack[14].node[0].app 	throughput
field count 125535
field mean 62768
field stddev 36238.97735864
field sum 7879580880
field sqrsum 6.5944475037416e+014
field min 1
field max 125535
statistic Basic.rack[14].node[0].app 	"End-to-End Delay"
field count 125535
field mean 9.6552229490081e-006
field stddev 7.1575558442015e-006
field sum 1.2120684129037
field sqrsum 1.8133973607318e-005
field min 8.496e-007
field max 7.6385878e-005
statistic Basic.rack[14].node[0].app 	hops
field count 125535
field mean 4.2486637192815
field stddev 0.82831555524677
field sum 533356
field sqrsum 2352180
field min 3
field max 5
statistic Basic.rack[14].node[1].app 	throughput
field count 124768
field mean 62384.5
field stddev 36017.563530404
field sum 7783589296
field sqrsum 6.4743117405198e+014
field min 1
field max 124768
statistic Basic.rack[14].node[1].app 	"End-to-End Delay"
field count 124768
field mean 9.6735089064e-006
field stddev 7.2021694267307e-006
field sum 1.2069443592337
field sqrsum 1.8147206565036e-005
field min 8.496e-007
field max 8.1577513e-005
statistic Basic.rack[14].node[1].app 	hops
field count 124768
field mean 4.2492065273147
field stddev 0.82785557579701
field sum 530165
field sqrsum 2338289
field min 3
field max 5
statistic Basic.rack[14].node[2].app 	throughput
field count 125882
field mean 62941.5
field stddev 36339.147630345
field sum 7923201903
field sqrsum 6.6492830903626e+014
field min 1
field max 125882
statistic Basic.rack[14].node[2].app 	"End-to-End Delay"
field count 125882
field mean 9.6584447203628e-006
field stddev 7.1186928856367e-006
field sum 1.2158243382887
field sqrsum 1.8122091080615e-005
field min 8.496e-007
field max 7.774196e-005
statistic Basic.rack[14].node[2].app 	hops
field count 125882
field mean 4.24845490221
field stddev 0.83006653358331
field sum 534804
field sqrsum 2358824
field min 3
field max 5
statistic Basic.rack[14].node[3].app 	throughput
field count 124371
field mean 62186
field stddev 35902.959501969
field sum 7734135006
field sqrsum 6.4127064793249e+014
field min 1
field max 124371
statistic Basic.rack[14].node[3].app 	"End-to-End Delay"
field count 124371
field mean 9.6714672613209e-006
field stddev 7.1332130433004e-006
field sum 1.2028500547577
field sqrsum 1.7961609846164e-005
field min 8.496e-007
field max 8.058312e-005
statistic Basic.rack[14].node[3].app 	hops
field count 124371
field mean 4.2483858777368
field stddev 0.82959482562038
field sum 528376
field sqrsum 2330340
field min 3
field max 5
statistic Basic.rack[14].node[4].app 	throughput
field count 124707
field mean 62354
field stddev 35999.954347193
field sum 7775980278
field sqrsum 6.4648204034579e+014
field min 1
field max 124707
statistic Basic.rack[14].node[4].app 	"End-to-End Delay"
field count 124707
field mean 9.6411122791322e-006
field stddev 7.1151338333498e-006
field sum 1.2023141889937
field sqrsum 1.7904903486129e-005
field min 8.496e-007
field max 7.5688751e-005
statistic Basic.rack[14].node[4].app 	hops
field count 124707
field mean 4.2501062490478
field stddev 0.82740295970257
field sum 530018
field sqrsum 2338006
field min 3
field max 5
statistic Basic.rack[14].node[5].app 	throughput
field count 124563
field mean 62282
field stddev 35958.385127811
field sum 7758032766
field sqrsum 6.4424514296509e+014
field min 1
field max 124563
statistic Basic.rack[14].node[5].app 	"End-to-End Delay"
field count 124563
field mean 9.6809835951827e-006
field stddev 7.1323817211612e-006
field sum 1.2058923595667
field sqrsum 1.8010801336937e-005
field min 8.496e-007
field max 7.6939792e-005
statistic Basic.rack[14].node[5].app 	hops
field count 124563
field mean 4.2485328709167
field stddev 0.83010231648401
field sum 529210
field sqrsum 2334198
field min 3
field max 5
statistic Basic.rack[14].node[6].app 	throughput
field count 124992
field mean 62496.5
field stddev 36082.226760553
field sum 7811562528
field sqrsum 6.5092448618736e+014
field min 1
field max 124992
statistic Basic.rack[14].node[6].app 	"End-to-End Delay"
field count 124992
field mean 9.6730606088288e-006
field stddev 7.1713706470312e-006
field sum 1.2090551916187
field sqrsum 1.8123370910572e-005
field min 8.496e-007
field max 8.5842954e-005
statistic Basic.rack[14].node[6].app 	hops
field count 124992
field mean 4.2516161034306
field stddev 0.82795576279805
field sum 531418
field sqrsum 2345068
field min 3
field max 5
statistic Basic.rack[14].node[7].app 	throughput
field count 125025
field mean 62513
field stddev 36091.753039995
field sum 7815687825
field sqrsum 6.5144018544302e+014
field min 1
field max 125025
statistic Basic.rack[14].node[7].app 	"End-to-End Delay"
field count 125025
field mean 9.7096918462124e-006
field stddev 7.1352358710298e-006
field sum 1.2139542230727
field sqrsum 1.8152292166531e-005
field min 8.496e-007
field max 8.3090411e-005
statistic Basic.rack[14].node[7].app 	hops
field count 125025
field mean 4.2474545090982
field stddev 0.83149820952294
field sum 531038
field sqrsum 2342000
field min 3
field max 5
statistic Basic.rack[14].node[8].app 	throughput
field count 124847
field mean 62424
field stddev 36040.368866037
field sum 7793449128
field sqrsum 6.4866176000532e+014
field min 1
field max 124847
statistic Basic.rack[14].node[8].app 	"End-to-End Delay"
field count 124847
field mean 9.6778451772069e-006
field stddev 7.1350063758656e-006
field sum 1.2082499368387
field sqrsum 1.8048955441389e-005
field min 8.496e-007
field max 7.8240871e-005
statistic Basic.rack[14].node[8].app 	hops
field count 124847
field mean 4.249577482839
field stddev 0.82939182728506
field sum 530547
field sqrsum 2340481
field min 3
field max 5
statistic Basic.rack[14].node[9].app 	throughput
field count 124681
field mean 62341
field stddev 35992.448793694
field sum 7772738221
field sqrsum 6.4607777366774e+014
field min 1
field max 124681
statistic Basic.rack[14].node[9].app 	"End-to-End Delay"
field count 124681
field mean 9.6844745531377e-006
field stddev 7.1408472118885e-006
field sum 1.2074699717598
field sqrsum 1.8051357234478e-005
field min 8.496e-007
field max 9.4745973e-005
statistic Basic.rack[14].node[9].app 	hops
field count 124681
field mean 4.2463727432408
field stddev 0.83098444423481
field sum 529442
field sqrsum 2334304
field min 3
field max 5
statistic Basic.rack[14].eps.queue[0] 	dropsum
field count 0
field mean nan
field stddev nan
field sum 0
field sqrsum 0
field min nan
field max nan
statistic Basic.rack[14].eps.queue[1] 	dropsum
field count 0
field mean nan
field stddev nan
field sum 0
field sqrsum 0
field min nan
field max nan
statistic Basic.rack[14].eps.queue[2] 	dropsum
field count 0
field mean nan
field stddev nan
field sum 0
field sqrsum 0
field min nan
field max nan
statistic Basic.rack[14].eps.queue[3] 	dropsum
field count 0
field mean nan
field stddev nan
field sum 0
field sqrsum 0
field min nan
field max nan
statistic Basic.rack[15].node[0].app 	throughput
field count 124690
field mean 62345.5
field stddev 35995.046869905
field sum 7773860395
field sqrsum 6.4621769305516e+014
field min 1
field max 124690
statistic Basic.rack[15].node[0].app 	"End-to-End Delay"
field count 124690
field mean 9.6775017295673e-006
field stddev 7.1648286890344e-006
field sum 1.2066876906597
field sqrsum 1.8078603367794e-005
field min 8.496e-007
field max 7.5930058e-005
statistic Basic.rack[15].node[0].app 	hops
field count 124690
field mean 4.251070655225
field stddev 0.82860611131129
field sum 530066
field sqrsum 2338958
field min 3
field max 5
statistic Basic.rack[15].node[1].app 	throughput
field count 124535
field mean 62268
field stddev 35950.302224043
field sum 7754545380
field sqrsum 6.4381079078066e+014
field min 1
field max 124535
statistic Basic.rack[15].node[1].app 	"End-to-End Delay"
field count 124535
field mean 9.7162823584352e-006
field stddev 7.189391031852e-006
field sum 1.2100172235077
field sqrsum 1.8193700626252e-005
field min 8.496e-007
field max 7.3749118e-005
statistic Basic.rack[15].node[1].app 	hops
field count 124535
field mean 4.2466294615971
field stddev 0.83089707875651
field sum 528854
field sqrsum 2331824
field min 3
field max 5
statistic Basic.rack[15].node[2].app 	throughput
field count 125035
field mean 62518
field stddev 36094.639791341
field sum 7816938130
field sqrsum 6.5159651170241e+014
field min 1
field max 125035
statistic Basic.rack[15].node[2].app 	"End-to-End Delay"
field count 125035
field mean 9.6761938319488e-006
field stddev 7.172669228372e-006
field sum 1.2098628957777
field sqrsum 1.8139515076334e-005
field min 8.496e-007
field max 7.8317408e-005
statistic Basic.rack[15].node[2].app 	hops
field count 125035
field mean 4.2492422121806
field stddev 0.82867251897342
field sum 531304
field sqrsum 2343500
field min 3
field max 5
statistic Basic.rack[15].node[3].app 	throughput
field count 125033
field mean 62517
field stddev 36094.062441072
field sum 7816688061
field sqrsum 6.5156524445003e+014
field min 1
field max 125033
statistic Basic.rack[15].node[3].app 	"End-to-End Delay"
field count 125033
field mean 9.6679622261941e-006
field stddev 7.1288732244602e-006
field sum 1.2088143210277
field sqrsum 1.8041001642152e-005
field min 8.496e-007
field max 7.4066197e-005
statistic Basic.rack[15].node[3].app 	hops
field count 125033
field mean 4.248062511497
field stddev 0.83003636745159
field sum 531148
field sqrsum 2342492
field min 3
field max 5
statistic Basic.rack[15].node[4].app 	throughput
field count 124906
field mean 62453.5
field stddev 36057.400698978
field sum 7800816871
field sqrsum 6.4958182166504e+014
field min 1
field max 124906
statistic Basic.rack[15].node[4].app 	"End-to-End Delay"
field count 124906
field mean 9.6978352247108e-006
field stddev 7.1830513157285e-006
field sum 1.2113178065777
field sqrsum 1.8191787127008e-005
field min 8.496e-007
field max 7.8699285e-005
statistic Basic.rack[15].node[4].app 	hops
field count 124906
field mean 4.2547835972651
field stddev 0.8275691125752
field sum 531448
field sqrsum 2346740
field min 3
field max 5
statistic Basic.rack[15].node[5].app 	throughput
field count 125063
field mean 62532
field stddev 36102.72269511
field sum 7820439516
field sqrsum 6.5203435827284e+014
field min 1
field max 125063
statistic Basic.rack[15].node[5].app 	"End-to-End Delay"
field count 125063
field mean 9.7046542781933e-006
field stddev 7.193460592766e-006
field sum 1.2136931779937
field sqrsum 1.8249915348959e-005
field min 8.496e-007
field max 7.6653606e-005
statistic Basic.rack[15].node[5].app 	hops
field count 125063
field mean 4.2483548291661
field stddev 0.82945496939729
field sum 531312
field sqrsum 2343244
field min 3
field max 5
statistic Basic.rack[15].node[6].app 	throughput
field count 124927
field mean 62464
field stddev 36063.462876805
field sum 7803440128
field sqrsum 6.4990951106048e+014
field min 1
field max 124927
statistic Basic.rack[15].node[6].app 	"End-to-End Delay"
field count 124927
field mean 9.6809223624015e-006
field stddev 7.1378812342594e-006
field sum 1.2094085879677
field sqrsum 1.8073088957046e-005
field min 8.496e-007
field max 7.7851138e-005
statistic Basic.rack[15].node[6].app 	hops
field count 124927
field mean 4.2512587351013
field stddev 0.82897088887978
field sum 531097
field sqrsum 2343679
field min 3
field max 5
statistic Basic.rack[15].node[7].app 	throughput
field count 124724
field mean 62362.5
field stddev 36004.861824481
field sum 7778100450
field sqrsum 6.4674645971735e+014
field min 1
field max 124724
statistic Basic.rack[15].node[7].app 	"End-to-End Delay"
field count 124724
field mean 9.6767296325304e-006
field stddev 7.1535062468658e-006
field sum 1.2069204266877
field sqrsum 1.8061449285529e-005
field min 8.496e-007
field max 6.7652409e-005
statistic Basic.rack[15].node[7].app 	hops
field count 124724
field mean 4.2504249382637
field stddev 0.82853305954944
field sum 530130
field sqrsum 2338896
field min 3
field max 5
statistic Basic.rack[15].node[8].app 	throughput
field count 124602
field mean 62301.5
field stddev 35969.643458061
field sum 7762891503
field sqrsum 6.448504590017e+014
field min 1
field max 124602
statistic Basic.rack[15].node[8].app 	"End-to-End Delay"
field count 124602
field mean 9.6980467522733e-006
field stddev 7.1953349233499e-006
field sum 1.2083960214268
field sqrsum 1.8170029328436e-005
field min 8.496e-007
field max 7.7518965e-005
statistic Basic.rack[15].node[8].app 	hops
field count 124602
field mean 4.2507022359192
field stddev 0.82909510011669
field sum 529646
field sqrsum 2337018
field min 3
field max 5
statistic Basic.rack[15].node[9].app 	throughput
field count 125217
field mean 62609
field stddev 36147.178665838
field sum 7839711153
field sqrsum 6.5444602086718e+014
field min 1
field max 125217
statistic Basic.rack[15].node[9].app 	"End-to-End Delay"
field count 125217
field mean 9.684780476243e-006
field stddev 7.1936052883283e-006
field sum 1.2126991568937
field sqrsum 1.8224397307495e-005
field min 8.496e-007
field max 8.1242243e-005
statistic Basic.rack[15].node[9].app 	hops
field count 125217
field mean 4.2479615387687
field stddev 0.82885776372641
field sum 531917
field sqrsum 2345587
field min 3
field max 5
statistic Basic.rack[15].eps.queue[0] 	dropsum
field count 0
field mean nan
field stddev nan
field sum 0
field sqrsum 0
field min nan
field max nan
statistic Basic.rack[15].eps.queue[1] 	dropsum
field count 0
field mean nan
field stddev nan
field sum 0
field sqrsum 0
field min nan
field max nan
statistic Basic.rack[15].eps.queue[2] 	dropsum
field count 0
field mean nan
field stddev nan
field sum 0
field sqrsum 0
field min nan
field max nan
statistic Basic.rack[15].eps.queue[3] 	dropsum
field count 0
field mean nan
field stddev nan
field sum 0
field sqrsum 0
field min nan
field max nan
