version 2
run Basic-7-20180510-16:01:34-22980
attr configname Basic
attr datetime 20180510-16:01:34
attr experiment Basic
attr inifile omnetpp.ini
attr iterationvars "$0=exponential(0.5 ms), $1=5, $2=5"
attr iterationvarsf exponential(0.5_ms),5,5-
attr measurement "$0=exponential(0.5 ms), $1=5, $2=5"
attr network Networks.Basic
attr processid 22980
attr repetition 0
attr replication #0
attr resultdir results
attr runnumber 7
attr seedset 7
param **.frameCapacity 50
param **.packetLength "1024 bytes"
param **.pattern 5
param **.sendIaTime "exponential(0.5 ms)"
param **.tp 5

statistic Basic.rack[0].node[0].app 	throughput
field count 19819
field mean 9910
field stddev 5721.3968282812
field sum 196406290
field sqrsum 2595116309770
field min 1
field max 19819
statistic Basic.rack[0].node[0].app 	"End-to-End Delay"
field count 19819
field mean 1.4128614739191e-005
field stddev 5.2701952349765e-006
field sum 0.28001501551603
field sqrsum 4.5066683893878e-006
field min 8.992e-006
field max 5.2356372e-005
statistic Basic.rack[0].node[0].app 	hops
field count 19819
field mean 4.4962914375095
field stddev 1.5000332593053
field sum 89112
field sqrsum 445266
field min 3
field max 6
statistic Basic.rack[0].node[1].app 	throughput
field count 20074
field mean 10037.5
field stddev 5795.008987626
field sum 201492775
field sqrsum 2696577807825
field min 1
field max 20074
statistic Basic.rack[0].node[1].app 	"End-to-End Delay"
field count 20074
field mean 1.4187719187159e-005
field stddev 5.2766603120144e-006
field sum 0.28480427496303
field sqrsum 4.5996185069613e-006
field min 8.992e-006
field max 4.6025255e-005
statistic Basic.rack[0].node[1].app 	hops
field count 20074
field mean 4.5138985752715
field stddev 1.4999729700399
field sum 90612
field sqrsum 454176
field min 3
field max 6
statistic Basic.rack[0].node[2].app 	throughput
field count 19977
field mean 9989
field stddev 5767.0074995616
field sum 199550253
field sqrsum 2657676786205
field min 1
field max 19977
statistic Basic.rack[0].node[2].app 	"End-to-End Delay"
field count 19977
field mean 1.4185127964811e-005
field stddev 5.2863168222427e-006
field sum 0.28337630135303
field sqrsum 4.577961324297e-006
field min 8.992e-006
field max 4.5919626e-005
statistic Basic.rack[0].node[2].app 	hops
field count 19977
field mean 4.5099864844571
field stddev 1.5000043000931
field sum 90096
field sqrsum 451278
field min 3
field max 6
statistic Basic.rack[0].node[3].app 	throughput
field count 20237
field mean 10119
field stddev 5842.0630345795
field sum 204778203
field sqrsum 2762799255475
field min 1
field max 20237
statistic Basic.rack[0].node[3].app 	"End-to-End Delay"
field count 20237
field mean 1.4138003927659e-005
field stddev 5.2913773428663e-006
field sum 0.28611078548403
field sqrsum 4.6116165797184e-006
field min 8.992e-006
field max 4.1337635e-005
statistic Basic.rack[0].node[3].app 	hops
field count 20237
field mean 4.4922172258734
field stddev 1.5000168710436
field sum 90909
field sqrsum 453915
field min 3
field max 6
statistic Basic.rack[0].node[4].app 	throughput
field count 20165
field mean 10083
field stddev 5821.2784248823
field sum 203323695
field sqrsum 2733415981015
field min 1
field max 20165
statistic Basic.rack[0].node[4].app 	"End-to-End Delay"
field count 20165
field mean 1.4124326574066e-005
field stddev 5.2229863095401e-006
field sum 0.28481704536603
field sqrsum 4.5729145345055e-006
field min 8.992e-006
field max 4.0564538e-005
statistic Basic.rack[0].node[4].app 	hops
field count 20165
field mean 4.4997768410612
field stddev 1.5000371779395
field sum 90738
field sqrsum 453672
field min 3
field max 6
statistic Basic.rack[0].node[5].app 	throughput
field count 19931
field mean 9966
field stddev 5753.7284433661
field sum 198632346
field sqrsum 2639360402866
field min 1
field max 19931
statistic Basic.rack[0].node[5].app 	"End-to-End Delay"
field count 19931
field mean 1.4064162602631e-005
field stddev 5.2741415796007e-006
field sum 0.28031282483303
field sqrsum 4.4967493762298e-006
field min 8.992e-006
field max 4.708791e-005
statistic Basic.rack[0].node[5].app 	hops
field count 19931
field mean 4.477647885204
field stddev 1.4998710788026
field sum 89244
field sqrsum 444438
field min 3
field max 6
statistic Basic.rack[0].node[6].app 	throughput
field count 19851
field mean 9926
field stddev 5730.6344325912
field sum 197041026
field sqrsum 2607706618426
field min 1
field max 19851
statistic Basic.rack[0].node[6].app 	"End-to-End Delay"
field count 19851
field mean 1.4084443568336e-005
field stddev 5.2379535581657e-006
field sum 0.27959028927503
field sqrsum 4.4824813774773e-006
field min 8.992e-006
field max 4.7610295e-005
statistic Basic.rack[0].node[6].app 	hops
field count 19851
field mean 4.4881366178026
field stddev 1.4999908677051
field sum 89094
field sqrsum 444528
field min 3
field max 6
statistic Basic.rack[0].node[7].app 	throughput
field count 19808
field mean 9904.5
field stddev 5718.2214017997
field sum 196188336
field sqrsum 2590797769104
field min 1
field max 19808
statistic Basic.rack[0].node[7].app 	"End-to-End Delay"
field count 19808
field mean 1.407133972582e-005
field stddev 5.2599041943255e-006
field sum 0.27872509728903
field sqrsum 4.470027724454e-006
field min 8.992e-006
field max 4.0563106e-005
statistic Basic.rack[0].node[7].app 	hops
field count 19808
field mean 4.4792508077544
field stddev 1.4998943447751
field sum 88725
field sqrsum 441981
field min 3
field max 6
statistic Basic.rack[0].node[8].app 	throughput
field count 20132
field mean 10066.5
field stddev 5811.7521454377
field sum 202658778
field sqrsum 2720018565390
field min 1
field max 20132
statistic Basic.rack[0].node[8].app 	"End-to-End Delay"
field count 20132
field mean 1.4119278482914e-005
field stddev 5.2433988208626e-006
field sum 0.28424931441803
field sqrsum 4.5668614660246e-006
field min 8.992e-006
field max 4.0650425e-005
statistic Basic.rack[0].node[8].app 	hops
field count 20132
field mean 4.4932942578979
field stddev 1.5000222660712
field sum 90459
field sqrsum 451755
field min 3
field max 6
statistic Basic.rack[0].node[9].app 	throughput
field count 20063
field mean 10032
field stddev 5791.8335611445
field sum 201272016
field sqrsum 2692147395344
field min 1
field max 20063
statistic Basic.rack[0].node[9].app 	"End-to-End Delay"
field count 20063
field mean 1.411371679091e-005
field stddev 5.2927388006215e-006
field sum 0.28316349997603
field sqrsum 4.5584879356254e-006
field min 8.992e-006
field max 4.1237967e-005
statistic Basic.rack[0].node[9].app 	hops
field count 20063
field mean 4.4854209240891
field stddev 1.4999665303862
field sum 89991
field sqrsum 448785
field min 3
field max 6
statistic Basic.rack[0].eps.queue[0] 	dropsum
field count 0
field mean nan
field stddev nan
field sum 0
field sqrsum 0
field min nan
field max nan
statistic Basic.rack[0].eps.queue[1] 	dropsum
field count 0
field mean nan
field stddev nan
field sum 0
field sqrsum 0
field min nan
field max nan
statistic Basic.rack[0].eps.queue[2] 	dropsum
field count 0
field mean nan
field stddev nan
field sum 0
field sqrsum 0
field min nan
field max nan
statistic Basic.rack[0].eps.queue[3] 	dropsum
field count 0
field mean nan
field stddev nan
field sum 0
field sqrsum 0
field min nan
field max nan
statistic Basic.rack[1].node[0].app 	throughput
field count 19985
field mean 9993
field stddev 5769.3169006391
field sum 199710105
field sqrsum 2660870868985
field min 1
field max 19985
statistic Basic.rack[1].node[0].app 	"End-to-End Delay"
field count 19985
field mean 1.4164109806857e-005
field stddev 5.2467246077646e-006
field sum 0.28306973449003
field sqrsum 4.5595527346033e-006
field min 8.992e-006
field max 4.9821055e-005
statistic Basic.rack[1].node[0].app 	hops
field count 19985
field mean 4.5131348511384
field stddev 1.4999800189084
field sum 90195
field sqrsum 452025
field min 3
field max 6
statistic Basic.rack[1].node[1].app 	throughput
field count 19762
field mean 9881.5
field stddev 5704.9423456041
field sum 195278203
field sqrsum 2572790324525
field min 1
field max 19762
statistic Basic.rack[1].node[1].app 	"End-to-End Delay"
field count 19762
field mean 1.4203476340504e-005
field stddev 5.2856315340725e-006
field sum 0.28068909944103
field sqrsum 4.5388418389569e-006
field min 8.992e-006
field max 4.192799e-005
statistic Basic.rack[1].node[1].app 	hops
field count 19762
field mean 4.5132071652667
field stddev 1.4999798073952
field sum 89190
field sqrsum 446994
field min 3
field max 6
statistic Basic.rack[1].node[2].app 	throughput
field count 20104
field mean 10052.5
field stddev 5803.6692416666
field sum 202095460
field sqrsum 2708685450380
field min 1
field max 20104
statistic Basic.rack[1].node[2].app 	"End-to-End Delay"
field count 20104
field mean 1.4141025353215e-005
field stddev 5.3064991168981e-006
field sum 0.28429117370103
field sqrsum 4.5862477226407e-006
field min 8.992e-006
field max 5.2171911e-005
statistic Basic.rack[1].node[2].app 	hops
field count 20104
field mean 4.4971647433347
field stddev 1.5000346277714
field sum 90411
field sqrsum 451827
field min 3
field max 6
statistic Basic.rack[1].node[3].app 	throughput
field count 20080
field mean 10040.5
field stddev 5796.7410384342
field sum 201613240
field sqrsum 2698996443880
field min 1
field max 20080
statistic Basic.rack[1].node[3].app 	"End-to-End Delay"
field count 20080
field mean 1.4094539313448e-005
field stddev 5.2674574702737e-006
field sum 0.28301834941403
field sqrsum 4.546127358814e-006
field min 8.992e-006
field max 4.359909e-005
statistic Basic.rack[1].node[3].app 	hops
field count 20080
field mean 4.4853585657371
field stddev 1.4999658913121
field sum 90066
field sqrsum 449154
field min 3
field max 6
statistic Basic.rack[1].node[4].app 	throughput
field count 20062
field mean 10031.5
field stddev 5791.5448860098
field sum 201251953
field sqrsum 2691744871375
field min 1
field max 20062
statistic Basic.rack[1].node[4].app 	"End-to-End Delay"
field count 20062
field mean 1.4139203886603e-005
field stddev 5.2719369934251e-006
field sum 0.28366070837303
field sqrsum 4.5682983760569e-006
field min 8.992e-006
field max 3.8881363e-005
statistic Basic.rack[1].node[4].app 	hops
field count 20062
field mean 4.4994018542518
field stddev 1.5000372662445
field sum 90267
field sqrsum 451287
field min 3
field max 6
statistic Basic.rack[1].node[5].app 	throughput
field count 20277
field mean 10139
field stddev 5853.6100399668
field sum 205588503
field sqrsum 2779213913055
field min 1
field max 20277
statistic Basic.rack[1].node[5].app 	"End-to-End Delay"
field count 20277
field mean 1.4122848033389e-005
field stddev 5.2636824513732e-006
field sum 0.28636898957303
field sqrsum 4.6061197336069e-006
field min 8.992e-006
field max 4.7150203e-005
statistic Basic.rack[1].node[5].app 	hops
field count 20277
field mean 4.4945997928688
field stddev 1.5000272680713
field sum 91137
field sqrsum 455247
field min 3
field max 6
statistic Basic.rack[1].node[6].app 	throughput
field count 19935
field mean 9968
field stddev 5754.8831439048
field sum 198712080
field sqrsum 2640949780560
field min 1
field max 19935
statistic Basic.rack[1].node[6].app 	"End-to-End Delay"
field count 19935
field mean 1.4146729536796e-005
field stddev 5.2919803478241e-006
field sum 0.28201505331603
field sqrsum 4.5478434709061e-006
field min 8.992e-006
field max 4.3199772e-005
statistic Basic.rack[1].node[6].app 	hops
field count 19935
field mean 4.4981188863807
field stddev 1.5000364441283
field sum 89670
field sqrsum 448200
field min 3
field max 6
statistic Basic.rack[1].node[7].app 	throughput
field count 20201
field mean 10101
field stddev 5831.6707297309
field sum 204050301
field sqrsum 2748081437101
field min 1
field max 20201
statistic Basic.rack[1].node[7].app 	"End-to-End Delay"
field count 20201
field mean 1.4172079899908e-005
field stddev 5.2524275356421e-006
field sum 0.28629018605803
field sqrsum 4.6146048907207e-006
field min 8.992e-006
field max 4.4116503e-005
statistic Basic.rack[1].node[7].app 	hops
field count 20201
field mean 4.5088361962279
field stddev 1.5000111012621
field sum 91083
field sqrsum 456129
field min 3
field max 6
statistic Basic.rack[1].node[8].app 	throughput
field count 20089
field mean 10045
field stddev 5799.3391146463
field sum 201794005
field sqrsum 2702627108965
field min 1
field max 20089
statistic Basic.rack[1].node[8].app 	"End-to-End Delay"
field count 20089
field mean 1.4095471581265e-005
field stddev 5.2586008555999e-006
field sum 0.28316392859603
field sqrsum 4.5468202212354e-006
field min 8.992e-006
field max 4.5640027e-005
statistic Basic.rack[1].node[8].app 	hops
field count 20089
field mean 4.4848424510926
field stddev 1.4999607476339
field sum 90096
field sqrsum 449262
field min 3
field max 6
statistic Basic.rack[1].node[9].app 	throughput
field count 19836
field mean 9918.5
field stddev 5726.3043055709
field sum 196743366
field sqrsum 2601799853106
field min 1
field max 19836
statistic Basic.rack[1].node[9].app 	"End-to-End Delay"
field count 19836
field mean 1.4125540584898e-005
field stddev 5.281113123744e-006
field sum 0.28019422304203
field sqrsum 4.5110961100385e-006
field min 8.992e-006
field max 4.9142381e-005
statistic Basic.rack[1].node[9].app 	hops
field count 19836
field mean 4.4977313974592
field stddev 1.5000360959086
field sum 89217
field sqrsum 445905
field min 3
field max 6
statistic Basic.rack[1].eps.queue[0] 	dropsum
field count 0
field mean nan
field stddev nan
field sum 0
field sqrsum 0
field min nan
field max nan
statistic Basic.rack[1].eps.queue[1] 	dropsum
field count 0
field mean nan
field stddev nan
field sum 0
field sqrsum 0
field min nan
field max nan
statistic Basic.rack[1].eps.queue[2] 	dropsum
field count 0
field mean nan
field stddev nan
field sum 0
field sqrsum 0
field min nan
field max nan
statistic Basic.rack[1].eps.queue[3] 	dropsum
field count 0
field mean nan
field stddev nan
field sum 0
field sqrsum 0
field min nan
field max nan
statistic Basic.rack[2].node[0].app 	throughput
field count 19930
field mean 9965.5
field stddev 5753.4397682314
field sum 198612415
field sqrsum 2638963158105
field min 1
field max 19930
statistic Basic.rack[2].node[0].app 	"End-to-End Delay"
field count 19930
field mean 7.6601502549434e-006
field stddev 4.3118399237565e-006
field sum 0.15266679458102
field sqrsum 1.5399698265827e-006
field min 8.496e-007
field max 2.9175763e-005
statistic Basic.rack[2].node[0].app 	hops
field count 19930
field mean 4.2510286001004
field stddev 0.82836657003639
field sum 84723
field sqrsum 373835
field min 3
field max 5
statistic Basic.rack[2].node[1].app 	throughput
field count 19924
field mean 9962.5
field stddev 5751.7077174233
field sum 198492850
field sqrsum 2636580526550
field min 1
field max 19924
statistic Basic.rack[2].node[1].app 	"End-to-End Delay"
field count 19924
field mean 7.6972170910972e-006
field stddev 4.3253218224724e-006
field sum 0.15335935332302
field sqrsum 1.5531678653539e-006
field min 8.496e-007
field max 3.1835461e-005
statistic Basic.rack[2].node[1].app 	hops
field count 19924
field mean 4.2482433246336
field stddev 0.83088346961376
field sum 84642
field sqrsum 373334
field min 3
field max 5
statistic Basic.rack[2].node[2].app 	throughput
field count 19671
field mean 9836
field stddev 5678.6729083475
field sum 193483956
field sqrsum 2537413093636
field min 1
field max 19671
statistic Basic.rack[2].node[2].app 	"End-to-End Delay"
field count 19671
field mean 7.6700523870684e-006
field stddev 4.3235882780616e-006
field sum 0.15087760050602
field sqrsum 1.5249385847328e-006
field min 8.496e-007
field max 3.6478051e-005
statistic Basic.rack[2].node[2].app 	hops
field count 19671
field mean 4.2536220832698
field stddev 0.82813022273933
field sum 83673
field sqrsum 369403
field min 3
field max 5
statistic Basic.rack[2].node[3].app 	throughput
field count 20161
field mean 10081
field stddev 5820.1237243436
field sum 203243041
field sqrsum 2731789714081
field min 1
field max 20161
statistic Basic.rack[2].node[3].app 	"End-to-End Delay"
field count 20161
field mean 7.6743038838858e-006
field stddev 4.324433806415e-006
field sum 0.15472164060302
field sqrsum 1.5643875587616e-006
field min 8.496e-007
field max 3.5488184e-005
statistic Basic.rack[2].node[3].app 	hops
field count 20161
field mean 4.2579237141015
field stddev 0.82690366846342
field sum 85844
field sqrsum 379302
field min 3
field max 5
statistic Basic.rack[2].node[4].app 	throughput
field count 19930
field mean 9965.5
field stddev 5753.4397682314
field sum 198612415
field sqrsum 2638963158105
field min 1
field max 19930
statistic Basic.rack[2].node[4].app 	"End-to-End Delay"
field count 19930
field mean 7.6133663319128e-006
field stddev 4.349751481975e-006
field sum 0.15173439099502
field sqrsum 1.5322729188989e-006
field min 8.496e-007
field max 3.2261046e-005
statistic Basic.rack[2].node[4].app 	hops
field count 19930
field mean 4.2493728048169
field stddev 0.8256214132713
field sum 84690
field sqrsum 373464
field min 3
field max 5
statistic Basic.rack[2].node[5].app 	throughput
field count 19925
field mean 9963
field stddev 5751.996392558
field sum 198512775
field sqrsum 2636977532175
field min 1
field max 19925
statistic Basic.rack[2].node[5].app 	"End-to-End Delay"
field count 19925
field mean 7.7162830471278e-006
field stddev 4.2831821980021e-006
field sum 0.15374693971402
field sqrsum 1.5518736299084e-006
field min 8.496e-007
field max 3.1039837e-005
statistic Basic.rack[2].node[5].app 	hops
field count 19925
field mean 4.2537013801757
field stddev 0.83129596262403
field sum 84755
field sqrsum 374291
field min 3
field max 5
statistic Basic.rack[2].node[6].app 	throughput
field count 19788
field mean 9894.5
field stddev 5712.447899106
field sum 195792366
field sqrsum 2582958156394
field min 1
field max 19788
statistic Basic.rack[2].node[6].app 	"End-to-End Delay"
field count 19788
field mean 7.6754242647576e-006
field stddev 4.3165284904037e-006
field sum 0.15188129535102
field sqrsum 1.534433038791e-006
field min 8.496e-007
field max 3.2991951e-005
statistic Basic.rack[2].node[6].app 	hops
field count 19788
field mean 4.2502021427128
field stddev 0.82960366405971
field sum 84103
field sqrsum 371073
field min 3
field max 5
statistic Basic.rack[2].node[7].app 	throughput
field count 20324
field mean 10162.5
field stddev 5867.1777712969
field sum 206542650
field sqrsum 2798584059950
field min 1
field max 20324
statistic Basic.rack[2].node[7].app 	"End-to-End Delay"
field count 20324
field mean 7.6355965896488e-006
field stddev 4.298922469709e-006
field sum 0.15518586508802
field sqrsum 1.5605206274506e-006
field min 8.496e-007
field max 3.0100779e-005
statistic Basic.rack[2].node[7].app 	hops
field count 20324
field mean 4.2529029718559
field stddev 0.8267795181493
field sum 86436
field sqrsum 381496
field min 3
field max 5
statistic Basic.rack[2].node[8].app 	throughput
field count 19913
field mean 9957
field stddev 5748.5322909418
field sum 198273741
field sqrsum 2632216094269
field min 1
field max 19913
statistic Basic.rack[2].node[8].app 	"End-to-End Delay"
field count 19913
field mean 7.6486257405224e-006
field stddev 4.3427207073423e-006
field sum 0.15230708437102
field sqrsum 1.5404647371872e-006
field min 8.496e-007
field max 3.6589716e-005
statistic Basic.rack[2].node[8].app 	hops
field count 19913
field mean 4.2447145081103
field stddev 0.82888378118943
field sum 84525
field sqrsum 372465
field min 3
field max 5
statistic Basic.rack[2].node[9].app 	throughput
field count 20121
field mean 10061
field stddev 5808.5767189562
field sum 202437381
field sqrsum 2715562507861
field min 1
field max 20121
statistic Basic.rack[2].node[9].app 	"End-to-End Delay"
field count 20121
field mean 7.6497495705989e-006
field stddev 4.2819063707805e-006
field sum 0.15392061111002
field sqrsum 1.546348738768e-006
field min 8.496e-007
field max 2.917619e-005
statistic Basic.rack[2].node[9].app 	hops
field count 20121
field mean 4.2539138213806
field stddev 0.82769393547577
field sum 85593
field sqrsum 377889
field min 3
field max 5
statistic Basic.rack[2].eps.queue[0] 	dropsum
field count 0
field mean nan
field stddev nan
field sum 0
field sqrsum 0
field min nan
field max nan
statistic Basic.rack[2].eps.queue[1] 	dropsum
field count 0
field mean nan
field stddev nan
field sum 0
field sqrsum 0
field min nan
field max nan
statistic Basic.rack[2].eps.queue[2] 	dropsum
field count 0
field mean nan
field stddev nan
field sum 0
field sqrsum 0
field min nan
field max nan
statistic Basic.rack[2].eps.queue[3] 	dropsum
field count 0
field mean nan
field stddev nan
field sum 0
field sqrsum 0
field min nan
field max nan
statistic Basic.rack[3].node[0].app 	throughput
field count 20050
field mean 10025.5
field stddev 5788.0807843936
field sum 201011275
field sqrsum 2686917712925
field min 1
field max 20050
statistic Basic.rack[3].node[0].app 	"End-to-End Delay"
field count 20050
field mean 7.6624241357119e-006
field stddev 4.3453307579782e-006
field sum 0.15363160392102
field sqrsum 1.5557537108876e-006
field min 8.496e-007
field max 4.1578268e-005
statistic Basic.rack[3].node[0].app 	hops
field count 20050
field mean 4.2526683291771
field stddev 0.82693636033648
field sum 85266
field sqrsum 376318
field min 3
field max 5
statistic Basic.rack[3].node[1].app 	throughput
field count 19991
field mean 9996
field stddev 5771.0489514472
field sum 199830036
field sqrsum 2663268109796
field min 1
field max 19991
statistic Basic.rack[3].node[1].app 	"End-to-End Delay"
field count 19991
field mean 7.6523004777661e-006
field stddev 4.2799792246481e-006
field sum 0.15297713885102
field sqrsum 1.5368082937637e-006
field min 8.496e-007
field max 2.8086303e-005
statistic Basic.rack[3].node[1].app 	hops
field count 19991
field mean 4.2415086789055
field stddev 0.83207330079817
field sum 84792
field sqrsum 373486
field min 3
field max 5
statistic Basic.rack[3].node[2].app 	throughput
field count 19792
field mean 9896.5
field stddev 5713.6025996447
field sum 195871528
field sqrsum 2584524811960
field min 1
field max 19792
statistic Basic.rack[3].node[2].app 	"End-to-End Delay"
field count 19792
field mean 7.647101871818e-006
field stddev 4.3283019129444e-006
field sum 0.15135144024702
field sqrsum 1.5281683837404e-006
field min 8.496e-007
field max 3.49302e-005
statistic Basic.rack[3].node[2].app 	hops
field count 19792
field mean 4.2397433306386
field stddev 0.83077271885857
field sum 83913
field sqrsum 369429
field min 3
field max 5
statistic Basic.rack[3].node[3].app 	throughput
field count 20125
field mean 10063
field stddev 5809.7314194949
field sum 202517875
field sqrsum 2717182328875
field min 1
field max 20125
statistic Basic.rack[3].node[3].app 	"End-to-End Delay"
field count 20125
field mean 7.7206507928955e-006
field stddev 4.3652728801282e-006
field sum 0.15537809720702
field sqrsum 1.5830950710671e-006
field min 8.496e-007
field max 2.955576e-005
statistic Basic.rack[3].node[3].app 	hops
field count 20125
field mean 4.2591304347826
field stddev 0.82706752255897
field sum 85715
field sqrsum 378837
field min 3
field max 5
statistic Basic.rack[3].node[4].app 	throughput
field count 20119
field mean 10060
field stddev 5807.9993686868
field sum 202397140
field sqrsum 2714752838820
field min 1
field max 20119
statistic Basic.rack[3].node[4].app 	"End-to-End Delay"
field count 20119
field mean 7.7149286307978e-006
field stddev 4.3282706146338e-006
field sum 0.15521664912302
field sqrsum 1.5743745038944e-006
field min 8.496e-007
field max 3.0935716e-005
statistic Basic.rack[3].node[4].app 	hops
field count 20119
field mean 4.2533923157215
field stddev 0.82996753351749
field sum 85574
field sqrsum 377838
field min 3
field max 5
statistic Basic.rack[3].node[5].app 	throughput
field count 20187
field mean 10094
field stddev 5827.6292778453
field sum 203767578
field sqrsum 2742371987250
field min 1
field max 20187
statistic Basic.rack[3].node[5].app 	"End-to-End Delay"
field count 20187
field mean 7.688817983109e-006
field stddev 4.2981284032303e-006
field sum 0.15521416862502
field sqrsum 1.5663277932158e-006
field min 8.496e-007
field max 3.1043338e-005
statistic Basic.rack[3].node[5].app 	hops
field count 20187
field mean 4.2558577302224
field stddev 0.82866672297662
field sum 85913
field sqrsum 379495
field min 3
field max 5
statistic Basic.rack[3].node[6].app 	throughput
field count 19923
field mean 9962
field stddev 5751.4190422886
field sum 198472926
field sqrsum 2636183560774
field min 1
field max 19923
statistic Basic.rack[3].node[6].app 	"End-to-End Delay"
field count 19923
field mean 7.656067289064e-006
field stddev 4.3364139802719e-006
field sum 0.15253182860002
field sqrsum 1.5424169177275e-006
field min 8.496e-007
field max 3.0992146e-005
statistic Basic.rack[3].node[6].app 	hops
field count 19923
field mean 4.2520704713146
field stddev 0.8270870506248
field sum 84714
field sqrsum 373838
field min 3
field max 5
statistic Basic.rack[3].node[7].app 	throughput
field count 19992
field mean 9996.5
field stddev 5771.3376265819
field sum 199850028
field sqrsum 2663667789860
field min 1
field max 19992
statistic Basic.rack[3].node[7].app 	"End-to-End Delay"
field count 19992
field mean 7.6745023126261e-006
field stddev 4.3396083903405e-006
field sum 0.15342865023402
field sqrsum 1.5539630608655e-006
field min 8.496e-007
field max 3.8578365e-005
statistic Basic.rack[3].node[7].app 	hops
field count 19992
field mean 4.25025010004
field stddev 0.82876958440558
field sum 84971
field sqrsum 374879
field min 3
field max 5
statistic Basic.rack[3].node[8].app 	throughput
field count 20223
field mean 10112
field stddev 5838.0215826939
field sum 204494976
field sqrsum 2757069431424
field min 1
field max 20223
statistic Basic.rack[3].node[8].app 	"End-to-End Delay"
field count 20223
field mean 7.6573375146131e-006
field stddev 4.3123702120295e-006
field sum 0.15485433655802
field sqrsum 1.561831088718e-006
field min 8.496e-007
field max 3.2208513e-005
statistic Basic.rack[3].node[8].app 	hops
field count 20223
field mean 4.2459081244128
field stddev 0.82979630493839
field sum 85865
field sqrsum 378499
field min 3
field max 5
statistic Basic.rack[3].node[9].app 	throughput
field count 19959
field mean 9980
field stddev 5761.8113471373
field sum 199190820
field sqrsum 2650499447860
field min 1
field max 19959
statistic Basic.rack[3].node[9].app 	"End-to-End Delay"
field count 19959
field mean 7.7110351919446e-006
field stddev 4.3227327586256e-006
field sum 0.15390455139602
field sqrsum 1.559698969288e-006
field min 8.496e-007
field max 4.0644682e-005
statistic Basic.rack[3].node[9].app 	hops
field count 19959
field mean 4.252567763916
field stddev 0.83032410247251
field sum 84877
field sqrsum 374705
field min 3
field max 5
statistic Basic.rack[3].eps.queue[0] 	dropsum
field count 0
field mean nan
field stddev nan
field sum 0
field sqrsum 0
field min nan
field max nan
statistic Basic.rack[3].eps.queue[1] 	dropsum
field count 0
field mean nan
field stddev nan
field sum 0
field sqrsum 0
field min nan
field max nan
statistic Basic.rack[3].eps.queue[2] 	dropsum
field count 0
field mean nan
field stddev nan
field sum 0
field sqrsum 0
field min nan
field max nan
statistic Basic.rack[3].eps.queue[3] 	dropsum
field count 0
field mean nan
field stddev nan
field sum 0
field sqrsum 0
field min nan
field max nan
statistic Basic.rack[4].node[0].app 	throughput
field count 20196
field mean 10098.5
field stddev 5830.2273540575
field sum 203949306
field sqrsum 2746041439086
field min 1
field max 20196
statistic Basic.rack[4].node[0].app 	"End-to-End Delay"
field count 20196
field mean 1.4097461510697e-005
field stddev 5.298279217619e-006
field sum 0.28471233267003
field sqrsum 4.5806303985138e-006
field min 8.992e-006
field max 4.1708103e-005
statistic Basic.rack[4].node[0].app 	hops
field count 20196
field mean 4.4830659536542
field stddev 1.4999415447247
field sum 90540
field sqrsum 451332
field min 3
field max 6
statistic Basic.rack[4].node[1].app 	throughput
field count 20054
field mean 10027.5
field stddev 5789.2354849324
field sum 201091485
field sqrsum 2688526123955
field min 1
field max 20054
statistic Basic.rack[4].node[1].app 	"End-to-End Delay"
field count 20054
field mean 1.4152135565126e-005
field stddev 5.266587631106e-006
field sum 0.28380692662303
field sqrsum 4.5726830635129e-006
field min 8.992e-006
field max 4.4219751e-005
statistic Basic.rack[4].node[1].app 	hops
field count 20054
field mean 4.5043382866261
field stddev 1.5000311266749
field sum 90330
field sqrsum 451998
field min 3
field max 6
statistic Basic.rack[4].node[2].app 	throughput
field count 19953
field mean 9977
field stddev 5760.0792963292
field sum 199071081
field sqrsum 2648109876489
field min 1
field max 19953
statistic Basic.rack[4].node[2].app 	"End-to-End Delay"
field count 19953
field mean 1.4155451826544e-005
field stddev 5.2333132342198e-006
field sum 0.28244373029503
field sqrsum 4.5445553628143e-006
field min 8.992e-006
field max 4.5501601e-005
statistic Basic.rack[4].node[2].app 	hops
field count 19953
field mean 4.5102992031273
field stddev 1.500002230581
field sum 89994
field sqrsum 450792
field min 3
field max 6
statistic Basic.rack[4].node[3].app 	throughput
field count 20034
field mean 10017.5
field stddev 5783.4619822387
field sum 200690595
field sqrsum 2680490483685
field min 1
field max 20034
statistic Basic.rack[4].node[3].app 	"End-to-End Delay"
field count 20034
field mean 1.4152364264602e-005
field stddev 5.2720338177982e-006
field sum 0.28352846567703
field sqrsum 4.5694021504042e-006
field min 8.992e-006
field max 4.4785146e-005
statistic Basic.rack[4].node[3].app 	hops
field count 20034
field mean 4.4995507637017
field stddev 1.500037370487
field sum 90144
field sqrsum 450684
field min 3
field max 6
statistic Basic.rack[4].node[4].app 	throughput
field count 20218
field mean 10109.5
field stddev 5836.5782070205
field sum 204393871
field sqrsum 2755024987209
field min 1
field max 20218
statistic Basic.rack[4].node[4].app 	"End-to-End Delay"
field count 20218
field mean 1.4145954000793e-005
field stddev 5.2956124487211e-006
field sum 0.28600289798803
field sqrsum 4.6127395051051e-006
field min 8.992e-006
field max 4.5650304e-005
statistic Basic.rack[4].node[4].app 	hops
field count 20218
field mean 4.4985161737066
field stddev 1.5000363631017
field sum 90951
field sqrsum 454635
field min 3
field max 6
statistic Basic.rack[4].node[5].app 	throughput
field count 19949
field mean 9975
field stddev 5758.9245957904
field sum 198991275
field sqrsum 2646517627075
field min 1
field max 19949
statistic Basic.rack[4].node[5].app 	"End-to-End Delay"
field count 19949
field mean 1.4190411919095e-005
field stddev 5.290239409991e-006
field sum 0.28308452737403
field sqrsum 4.5753634067436e-006
field min 8.992e-006
field max 4.1127531e-005
statistic Basic.rack[4].node[5].app 	hops
field count 19949
field mean 4.5075943656324
field stddev 1.5000183718815
field sum 89922
field sqrsum 450216
field min 3
field max 6
statistic Basic.rack[4].node[6].app 	throughput
field count 20106
field mean 10053.5
field stddev 5804.2465919359
field sum 202135671
field sqrsum 2709493912641
field min 1
field max 20106
statistic Basic.rack[4].node[6].app 	"End-to-End Delay"
field count 20106
field mean 1.4122819157915e-005
field stddev 5.267730630044e-006
field sum 0.28395340198903
field sqrsum 4.5681159089088e-006
field min 8.992e-006
field max 4.0298104e-005
statistic Basic.rack[4].node[6].app 	hops
field count 20106
field mean 4.4955237242614
field stddev 1.5000306244935
field sum 90387
field sqrsum 451575
field min 3
field max 6
statistic Basic.rack[4].node[7].app 	throughput
field count 20176
field mean 10088.5
field stddev 5824.4538513638
field sum 203545576
field sqrsum 2737891542776
field min 1
field max 20176
statistic Basic.rack[4].node[7].app 	"End-to-End Delay"
field count 20176
field mean 1.4031648422286e-005
field stddev 5.2705277122514e-006
field sum 0.28310253856803
field sqrsum 4.5328257668694e-006
field min 8.992e-006
field max 4.4753427e-005
statistic Basic.rack[4].node[7].app 	hops
field count 20176
field mean 4.4640166534496
field stddev 1.4996055010422
field sum 90066
field sqrsum 447426
field min 3
field max 6
statistic Basic.rack[4].node[8].app 	throughput
field count 20133
field mean 10067
field stddev 5812.0408205724
field sum 202678911
field sqrsum 2720423903079
field min 1
field max 20133
statistic Basic.rack[4].node[8].app 	"End-to-End Delay"
field count 20133
field mean 1.4172458731736e-005
field stddev 5.2580132959775e-006
field sum 0.28533411164603
field sqrsum 4.6004693633777e-006
field min 8.992e-006
field max 4.4379612e-005
statistic Basic.rack[4].node[8].app 	hops
field count 20133
field mean 4.5085680226494
field stddev 1.5000127825155
field sum 90771
field sqrsum 454545
field min 3
field max 6
statistic Basic.rack[4].node[9].app 	throughput
field count 20209
field mean 10105
field stddev 5833.9801308084
field sum 204211945
field sqrsum 2751347534985
field min 1
field max 20209
statistic Basic.rack[4].node[9].app 	"End-to-End Delay"
field count 20209
field mean 1.4151224869367e-005
field stddev 5.3080451935041e-006
field sum 0.28598210338503
field sqrsum 4.6163644006471e-006
field min 8.992e-006
field max 4.4949198e-005
statistic Basic.rack[4].node[9].app 	hops
field count 20209
field mean 4.497402147558
field stddev 1.5000348638853
field sum 90888
field sqrsum 454230
field min 3
field max 6
statistic Basic.rack[4].eps.queue[0] 	dropsum
field count 0
field mean nan
field stddev nan
field sum 0
field sqrsum 0
field min nan
field max nan
statistic Basic.rack[4].eps.queue[1] 	dropsum
field count 0
field mean nan
field stddev nan
field sum 0
field sqrsum 0
field min nan
field max nan
statistic Basic.rack[4].eps.queue[2] 	dropsum
field count 0
field mean nan
field stddev nan
field sum 0
field sqrsum 0
field min nan
field max nan
statistic Basic.rack[4].eps.queue[3] 	dropsum
field count 0
field mean nan
field stddev nan
field sum 0
field sqrsum 0
field min nan
field max nan
statistic Basic.rack[5].node[0].app 	throughput
field count 20232
field mean 10116.5
field stddev 5840.6196589061
field sum 204677028
field sqrsum 2760751979340
field min 1
field max 20232
statistic Basic.rack[5].node[0].app 	"End-to-End Delay"
field count 20232
field mean 1.4146507642993e-005
field stddev 5.2451441077981e-006
field sum 0.28621214263303
field sqrsum 4.6054881624873e-006
field min 8.992e-006
field max 4.8575417e-005
statistic Basic.rack[5].node[0].app 	hops
field count 20232
field mean 4.5057829181495
field stddev 1.5000259236647
field sum 91161
field sqrsum 456273
field min 3
field max 6
statistic Basic.rack[5].node[1].app 	throughput
field count 20227
field mean 10114
field stddev 5839.1762832327
field sum 204575878
field sqrsum 2758705714830
field min 1
field max 20227
statistic Basic.rack[5].node[1].app 	"End-to-End Delay"
field count 20227
field mean 1.4152041669305e-005
field stddev 5.2734329841571e-006
field sum 0.28625334684503
field sqrsum 4.6135360568659e-006
field min 8.992e-006
field max 4.620655e-005
statistic Basic.rack[5].node[1].app 	hops
field count 20227
field mean 4.5048202897118
field stddev 1.5000293352508
field sum 91119
field sqrsum 455985
field min 3
field max 6
statistic Basic.rack[5].node[2].app 	throughput
field count 19741
field mean 9871
field stddev 5698.8801677757
field sum 194863411
field sqrsum 2564597352171
field min 1
field max 19741
statistic Basic.rack[5].node[2].app 	"End-to-End Delay"
field count 19741
field mean 1.414443771263e-005
field stddev 5.2793633387147e-006
field sum 0.27922534488503
field sqrsum 4.4996724076691e-006
field min 8.992e-006
field max 4.3759419e-005
statistic Basic.rack[5].node[2].app 	hops
field count 19741
field mean 4.501291727876
field stddev 1.5000374372386
field sum 88860
field sqrsum 444402
field min 3
field max 6
statistic Basic.rack[5].node[3].app 	throughput
field count 20137
field mean 10069
field stddev 5813.1955211111
field sum 202759453
field sqrsum 2722045656525
field min 1
field max 20137
statistic Basic.rack[5].node[3].app 	"End-to-End Delay"
field count 20137
field mean 1.4160674123208e-005
field stddev 5.2816520431626e-006
field sum 0.28515349481903
field sqrsum 4.5996765166965e-006
field min 8.992e-006
field max 4.4912269e-005
statistic Basic.rack[5].node[3].app 	hops
field count 20137
field mean 4.5023091821026
field stddev 1.500035468774
field sum 90663
field sqrsum 453501
field min 3
field max 6
statistic Basic.rack[5].node[4].app 	throughput
field count 19946
field mean 9973.5
field stddev 5758.0585703864
field sum 198931431
field sqrsum 2645323858961
field min 1
field max 19946
statistic Basic.rack[5].node[4].app 	"End-to-End Delay"
field count 19946
field mean 1.4221451212074e-005
field stddev 5.3311725021681e-006
field sum 0.28366106587603
field sqrsum 4.6009368370648e-006
field min 8.992e-006
field max 4.988817e-005
statistic Basic.rack[5].node[4].app 	hops
field count 19946
field mean 4.5138373608744
field stddev 1.4999737757948
field sum 90033
field sqrsum 451269
field min 3
field max 6
statistic Basic.rack[5].node[5].app 	throughput
field count 20007
field mean 10004
field stddev 5775.6677536022
field sum 200150028
field sqrsum 2669667790140
field min 1
field max 20007
statistic Basic.rack[5].node[5].app 	"End-to-End Delay"
field count 20007
field mean 1.4136975500276e-005
field stddev 5.2975807976099e-006
field sum 0.28283846883403
field sqrsum 4.5599361367604e-006
field min 8.992e-006
field max 4.9575557e-005
statistic Basic.rack[5].node[5].app 	hops
field count 20007
field mean 4.4909281751387
field stddev 1.5000100546797
field sum 89850
field sqrsum 448524
field min 3
field max 6
statistic Basic.rack[5].node[6].app 	throughput
field count 19739
field mean 9870
field stddev 5698.3028175063
field sum 194823930
field sqrsum 2563817977490
field min 1
field max 19739
statistic Basic.rack[5].node[6].app 	"End-to-End Delay"
field count 19739
field mean 1.415330217154e-005
field stddev 5.2889211430429e-006
field sum 0.27937203156403
field sqrsum 4.5061616741927e-006
field min 8.992e-006
field max 4.1873816e-005
statistic Basic.rack[5].node[6].app 	hops
field count 19739
field mean 4.5003799584579
field stddev 1.5000379491655
field sum 88833
field sqrsum 444195
field min 3
field max 6
statistic Basic.rack[5].node[7].app 	throughput
field count 20115
field mean 10058
field stddev 5806.8446681481
field sum 202316670
field sqrsum 2713133983590
field min 1
field max 20115
statistic Basic.rack[5].node[7].app 	"End-to-End Delay"
field count 20115
field mean 1.4201551768085e-005
field stddev 5.2597530430364e-006
field sum 0.28566421381503
field sqrsum 4.6133289724945e-006
field min 8.992e-006
field max 4.0483881e-005
statistic Basic.rack[5].node[7].app 	hops
field count 20115
field mean 4.5154362416107
field stddev 1.499957857069
field sum 90828
field sqrsum 455382
field min 3
field max 6
statistic Basic.rack[5].node[8].app 	throughput
field count 20215
field mean 10108
field stddev 5835.7121816165
field sum 204333220
field sqrsum 2753798805940
field min 1
field max 20215
statistic Basic.rack[5].node[8].app 	"End-to-End Delay"
field count 20215
field mean 1.416095310062e-005
field stddev 5.2598355041117e-006
field sum 0.28626366692903
field sqrsum 4.6130042484793e-006
field min 8.992e-006
field max 4.6037812e-005
statistic Basic.rack[5].node[8].app 	hops
field count 20215
field mean 4.5092752906258
field stddev 1.5000084245502
field sum 91155
field sqrsum 456525
field min 3
field max 6
statistic Basic.rack[5].node[9].app 	throughput
field count 19978
field mean 9989.5
field stddev 5767.2961746963
field sum 199570231
field sqrsum 2658075906689
field min 1
field max 19978
statistic Basic.rack[5].node[9].app 	"End-to-End Delay"
field count 19978
field mean 1.4062364232858e-005
field stddev 5.2989827888257e-006
field sum 0.28093791264403
field sqrsum 4.5115898043169e-006
field min 8.992e-006
field max 4.7721746e-005
statistic Basic.rack[5].node[9].app 	hops
field count 19978
field mean 4.4758234057463
field stddev 1.4998426892695
field sum 89418
field sqrsum 445158
field min 3
field max 6
statistic Basic.rack[5].eps.queue[0] 	dropsum
field count 0
field mean nan
field stddev nan
field sum 0
field sqrsum 0
field min nan
field max nan
statistic Basic.rack[5].eps.queue[1] 	dropsum
field count 0
field mean nan
field stddev nan
field sum 0
field sqrsum 0
field min nan
field max nan
statistic Basic.rack[5].eps.queue[2] 	dropsum
field count 0
field mean nan
field stddev nan
field sum 0
field sqrsum 0
field min nan
field max nan
statistic Basic.rack[5].eps.queue[3] 	dropsum
field count 0
field mean nan
field stddev nan
field sum 0
field sqrsum 0
field min nan
field max nan
statistic Basic.rack[6].node[0].app 	throughput
field count 19799
field mean 9900
field stddev 5715.6233255875
field sum 196010100
field sqrsum 2587267983300
field min 1
field max 19799
statistic Basic.rack[6].node[0].app 	"End-to-End Delay"
field count 19799
field mean 7.6907752303158e-006
field stddev 4.2963292635154e-006
field sum 0.15226965878502
field sqrsum 1.5365120170049e-006
field min 8.496e-007
field max 3.0682716e-005
statistic Basic.rack[6].node[0].app 	hops
field count 19799
field mean 4.2534471437951
field stddev 0.82985880397243
field sum 84214
field sqrsum 371834
field min 3
field max 5
statistic Basic.rack[6].node[1].app 	throughput
field count 20272
field mean 10136.5
field stddev 5852.1666642934
field sum 205487128
field sqrsum 2777158534920
field min 1
field max 20272
statistic Basic.rack[6].node[1].app 	"End-to-End Delay"
field count 20272
field mean 7.7062141785724e-006
field stddev 4.3148335608851e-006
field sum 0.15622037382802
field sqrsum 1.5812688536645e-006
field min 8.496e-007
field max 3.0150697e-005
statistic Basic.rack[6].node[1].app 	hops
field count 20272
field mean 4.2420086819258
field stddev 0.83296687931455
field sum 85994
field sqrsum 378852
field min 3
field max 5
statistic Basic.rack[6].node[2].app 	throughput
field count 19856
field mean 9928.5
field stddev 5732.0778082646
field sum 197140296
field sqrsum 2609677525016
field min 1
field max 19856
statistic Basic.rack[6].node[2].app 	"End-to-End Delay"
field count 19856
field mean 7.7624358768646e-006
field stddev 4.2768331041437e-006
field sum 0.15413092677102
field sqrsum 1.5596052250127e-006
field min 8.496e-007
field max 3.3600949e-005
statistic Basic.rack[6].node[2].app 	hops
field count 19856
field mean 4.2541297340854
field stddev 0.83374019197903
field sum 84470
field sqrsum 373148
field min 3
field max 5
statistic Basic.rack[6].node[3].app 	throughput
field count 20072
field mean 10036.5
field stddev 5794.4316373567
field sum 201452628
field sqrsum 2695771917020
field min 1
field max 20072
statistic Basic.rack[6].node[3].app 	"End-to-End Delay"
field count 20072
field mean 7.6800497309696e-006
field stddev 4.3190548267288e-006
field sum 0.15415395820002
field sqrsum 1.5583192077841e-006
field min 8.496e-007
field max 3.3665658e-005
statistic Basic.rack[6].node[3].app 	hops
field count 20072
field mean 4.2482064567557
field stddev 0.83007573767679
field sum 85270
field sqrsum 376074
field min 3
field max 5
statistic Basic.rack[6].node[4].app 	throughput
field count 20090
field mean 10045.5
field stddev 5799.627789781
field sum 201814095
field sqrsum 2703030717065
field min 1
field max 20090
statistic Basic.rack[6].node[4].app 	"End-to-End Delay"
field count 20090
field mean 7.690972198458e-006
field stddev 4.29778353177e-006
field sum 0.15451163146702
field sqrsum 1.5594074416228e-006
field min 8.496e-007
field max 3.1801083e-005
statistic Basic.rack[6].node[4].app 	hops
field count 20090
field mean 4.2485316077651
field stddev 0.83134142325549
field sum 85353
field sqrsum 376509
field min 3
field max 5
statistic Basic.rack[6].node[5].app 	throughput
field count 19996
field mean 9998.5
field stddev 5772.4923271206
field sum 199930006
field sqrsum 2665266909986
field min 1
field max 19996
statistic Basic.rack[6].node[5].app 	"End-to-End Delay"
field count 19996
field mean 7.6784766454801e-006
field stddev 4.3172879716178e-006
field sum 0.15353881900302
field sqrsum 1.5516305496097e-006
field min 8.496e-007
field max 3.5171372e-005
statistic Basic.rack[6].node[5].app 	hops
field count 19996
field mean 4.2564512902581
field stddev 0.82699266526066
field sum 85112
field sqrsum 375950
field min 3
field max 5
statistic Basic.rack[6].node[6].app 	throughput
field count 19998
field mean 9999.5
field stddev 5773.06967739
field sum 199970001
field sqrsum 2666066709999
field min 1
field max 19998
statistic Basic.rack[6].node[6].app 	"End-to-End Delay"
field count 19998
field mean 7.6320676595171e-006
field stddev 4.3160281640557e-006
field sum 0.15262608905502
field sqrsum 1.5373587362365e-006
field min 8.496e-007
field max 3.5738283e-005
statistic Basic.rack[6].node[6].app 	hops
field count 19998
field mean 4.2389238923892
field stddev 0.83085776809441
field sum 84770
field sqrsum 373138
field min 3
field max 5
statistic Basic.rack[6].node[7].app 	throughput
field count 20049
field mean 10025
field stddev 5787.7921092589
field sum 200991225
field sqrsum 2686515710425
field min 1
field max 20049
statistic Basic.rack[6].node[7].app 	"End-to-End Delay"
field count 20049
field mean 7.7083114057569e-006
field stddev 4.2928770183372e-006
field sum 0.15454393537402
field sqrsum 1.560733223694e-006
field min 8.496e-007
field max 3.9829591e-005
statistic Basic.rack[6].node[7].app 	hops
field count 20049
field mean 4.2559229886777
field stddev 0.83014397763165
field sum 85327
field sqrsum 376961
field min 3
field max 5
statistic Basic.rack[6].node[8].app 	throughput
field count 19949
field mean 9975
field stddev 5758.9245957904
field sum 198991275
field sqrsum 2646517627075
field min 1
field max 19949
statistic Basic.rack[6].node[8].app 	"End-to-End Delay"
field count 19949
field mean 7.6673477958806e-006
field stddev 4.2982876859874e-006
field sum 0.15295592118002
field sqrsum 1.5413110713511e-006
field min 8.496e-007
field max 3.5577361e-005
statistic Basic.rack[6].node[8].app 	hops
field count 19949
field mean 4.2477818437014
field stddev 0.83042379958378
field sum 84739
field sqrsum 373709
field min 3
field max 5
statistic Basic.rack[6].node[9].app 	throughput
field count 20126
field mean 10063.5
field stddev 5810.0200946296
field sum 202538001
field sqrsum 2717587384751
field min 1
field max 20126
statistic Basic.rack[6].node[9].app 	"End-to-End Delay"
field count 20126
field mean 7.6905556805138e-006
field stddev 4.3460853569832e-006
field sum 0.15478012362602
field sqrsum 1.5704753748277e-006
field min 8.496e-007
field max 3.0210643e-005
statistic Basic.rack[6].node[9].app 	hops
field count 20126
field mean 4.2455033290271
field stddev 0.8307137708065
field sum 85445
field sqrsum 376645
field min 3
field max 5
statistic Basic.rack[6].eps.queue[0] 	dropsum
field count 0
field mean nan
field stddev nan
field sum 0
field sqrsum 0
field min nan
field max nan
statistic Basic.rack[6].eps.queue[1] 	dropsum
field count 0
field mean nan
field stddev nan
field sum 0
field sqrsum 0
field min nan
field max nan
statistic Basic.rack[6].eps.queue[2] 	dropsum
field count 0
field mean nan
field stddev nan
field sum 0
field sqrsum 0
field min nan
field max nan
statistic Basic.rack[6].eps.queue[3] 	dropsum
field count 0
field mean nan
field stddev nan
field sum 0
field sqrsum 0
field min nan
field max nan
statistic Basic.rack[7].node[0].app 	throughput
field count 19855
field mean 9928
field stddev 5731.78913313
field sum 197120440
field sqrsum 2609283264280
field min 1
field max 19855
statistic Basic.rack[7].node[0].app 	"End-to-End Delay"
field count 19855
field mean 7.672918177639e-006
field stddev 4.2803545197312e-006
field sum 0.15234579041702
field sqrsum 1.5326905513863e-006
field min 8.496e-007
field max 2.9041706e-005
statistic Basic.rack[7].node[0].app 	hops
field count 19855
field mean 4.2541425333669
field stddev 0.82909459236329
field sum 84466
field sqrsum 372978
field min 3
field max 5
statistic Basic.rack[7].node[1].app 	throughput
field count 20081
field mean 10041
field stddev 5797.0297135688
field sum 201633321
field sqrsum 2699399690441
field min 1
field max 20081
statistic Basic.rack[7].node[1].app 	"End-to-End Delay"
field count 20081
field mean 7.7376109262497e-006
field stddev 4.3123855850538e-006
field sum 0.15537896501002
field sqrsum 1.5756830996092e-006
field min 8.496e-007
field max 3.9240803e-005
statistic Basic.rack[7].node[1].app 	hops
field count 20081
field mean 4.2541706090334
field stddev 0.83154662012955
field sum 85428
field sqrsum 377310
field min 3
field max 5
statistic Basic.rack[7].node[2].app 	throughput
field count 20007
field mean 10004
field stddev 5775.6677536022
field sum 200150028
field sqrsum 2669667790140
field min 1
field max 20007
statistic Basic.rack[7].node[2].app 	"End-to-End Delay"
field count 20007
field mean 7.6459506407768e-006
field stddev 4.2970903006855e-006
field sum 0.15297253447002
field sqrsum 1.5390309389075e-006
field min 8.496e-007
field max 2.782725e-005
statistic Basic.rack[7].node[2].app 	hops
field count 20007
field mean 4.2488628979857
field stddev 0.8289085924938
field sum 85007
field sqrsum 374929
field min 3
field max 5
statistic Basic.rack[7].node[3].app 	throughput
field count 20016
field mean 10008.5
field stddev 5778.2658298143
field sum 200330136
field sqrsum 2673272111496
field min 1
field max 20016
statistic Basic.rack[7].node[3].app 	"End-to-End Delay"
field count 20016
field mean 7.6575141831046e-006
field stddev 4.311322278269e-006
field sum 0.15327280388902
field sqrsum 1.5457174779031e-006
field min 8.496e-007
field max 3.1465724e-005
statistic Basic.rack[7].node[3].app 	hops
field count 20016
field mean 4.2509492406075
field stddev 0.82807597227521
field sum 85087
field sqrsum 375425
field min 3
field max 5
statistic Basic.rack[7].node[4].app 	throughput
field count 19766
field mean 9883.5
field stddev 5706.0970461428
field sum 195357261
field sqrsum 2574352866371
field min 1
field max 19766
statistic Basic.rack[7].node[4].app 	"End-to-End Delay"
field count 19766
field mean 7.662770152384e-006
field stddev 4.3329991387482e-006
field sum 0.15146231483202
field sqrsum 1.5317064388726e-006
field min 8.496e-007
field max 3.0542746e-005
statistic Basic.rack[7].node[4].app 	hops
field count 19766
field mean 4.259233026409
field stddev 0.82521881045838
field sum 84188
field sqrsum 372036
field min 3
field max 5
statistic Basic.rack[7].node[5].app 	throughput
field count 19994
field mean 9997.5
field stddev 5771.9149768513
field sum 199890015
field sqrsum 2664467269945
field min 1
field max 19994
statistic Basic.rack[7].node[5].app 	"End-to-End Delay"
field count 19994
field mean 7.6232111775044e-006
field stddev 4.2605915397221e-006
field sum 0.15241848428302
field sqrsum 1.5248440299298e-006
field min 8.496e-007
field max 3.4188682e-005
statistic Basic.rack[7].node[5].app 	hops
field count 19994
field mean 4.2347204161248
field stddev 0.83319615331371
field sum 84669
field sqrsum 372429
field min 3
field max 5
statistic Basic.rack[7].node[6].app 	throughput
field count 19967
field mean 9984
field stddev 5764.1207482148
field sum 199350528
field sqrsum 2653687778560
field min 1
field max 19967
statistic Basic.rack[7].node[6].app 	"End-to-End Delay"
field count 19967
field mean 7.6793999985988e-006
field stddev 4.3290836644335e-006
field sum 0.15333457977202
field sqrsum 1.551699686337e-006
field min 8.496e-007
field max 3.4831119e-005
statistic Basic.rack[7].node[6].app 	hops
field count 19967
field mean 4.2511143386588
field stddev 0.82868151148614
field sum 84882
field sqrsum 374554
field min 3
field max 5
statistic Basic.rack[7].node[7].app 	throughput
field count 20118
field mean 10059.5
field stddev 5807.7106935522
field sum 202377021
field sqrsum 2714348064659
field min 1
field max 20118
statistic Basic.rack[7].node[7].app 	"End-to-End Delay"
field count 20118
field mean 7.6950854313063e-006
field stddev 4.2829503389197e-006
field sum 0.15480972870702
field sqrsum 1.5602935687528e-006
field min 8.496e-007
field max 3.0737352e-005
statistic Basic.rack[7].node[7].app 	hops
field count 20118
field mean 4.2456009543692
field stddev 0.83277680596487
field sum 85413
field sqrsum 376581
field min 3
field max 5
statistic Basic.rack[7].node[8].app 	throughput
field count 20020
field mean 10010.5
field stddev 5779.4205303531
field sum 200410210
field sqrsum 2674875072870
field min 1
field max 20020
statistic Basic.rack[7].node[8].app 	"End-to-End Delay"
field count 20020
field mean 7.6847332494017e-006
field stddev 4.319139902525e-006
field sum 0.15384835965302
field sqrsum 1.5557374391636e-006
field min 8.496e-007
field max 3.2354966e-005
statistic Basic.rack[7].node[8].app 	hops
field count 20020
field mean 4.2522977022977
field stddev 0.82920384419047
field sum 85131
field sqrsum 375767
field min 3
field max 5
statistic Basic.rack[7].node[9].app 	throughput
field count 20009
field mean 10005
field stddev 5776.2451038715
field sum 200190045
field sqrsum 2670468470285
field min 1
field max 20009
statistic Basic.rack[7].node[9].app 	"End-to-End Delay"
field count 20009
field mean 7.6663178961978e-006
field stddev 4.3155684781341e-006
field sum 0.15339535478502
field sqrsum 1.5486091724216e-006
field min 8.496e-007
field max 3.1834839e-005
statistic Basic.rack[7].node[9].app 	hops
field count 20009
field mean 4.2530361337398
field stddev 0.82826293829061
field sum 85099
field sqrsum 375655
field min 3
field max 5
statistic Basic.rack[7].eps.queue[0] 	dropsum
field count 0
field mean nan
field stddev nan
field sum 0
field sqrsum 0
field min nan
field max nan
statistic Basic.rack[7].eps.queue[1] 	dropsum
field count 0
field mean nan
field stddev nan
field sum 0
field sqrsum 0
field min nan
field max nan
statistic Basic.rack[7].eps.queue[2] 	dropsum
field count 0
field mean nan
field stddev nan
field sum 0
field sqrsum 0
field min nan
field max nan
statistic Basic.rack[7].eps.queue[3] 	dropsum
field count 0
field mean nan
field stddev nan
field sum 0
field sqrsum 0
field min nan
field max nan
statistic Basic.rack[8].node[0].app 	throughput
field count 20212
field mean 10106.5
field stddev 5834.8461562124
field sum 204272578
field sqrsum 2752572988550
field min 1
field max 20212
statistic Basic.rack[8].node[0].app 	"End-to-End Delay"
field count 20212
field mean 1.4128563628539e-005
field stddev 5.2860908342564e-006
field sum 0.28556652806003
field sqrsum 4.5993959096183e-006
field min 8.992e-006
field max 4.657128e-005
statistic Basic.rack[8].node[0].app 	hops
field count 20212
field mean 4.4952503463289
field stddev 1.5000295881047
field sum 90858
field sqrsum 453906
field min 3
field max 6
statistic Basic.rack[8].node[1].app 	throughput
field count 20116
field mean 10058.5
field stddev 5807.1333432828
field sum 202336786
field sqrsum 2713538637046
field min 1
field max 20116
statistic Basic.rack[8].node[1].app 	"End-to-End Delay"
field count 20116
field mean 1.4163855327949e-005
field stddev 5.305460734712e-006
field sum 0.28492011377703
field sqrsum 4.6017625537771e-006
field min 8.992e-006
field max 4.2331465e-005
statistic Basic.rack[8].node[1].app 	hops
field count 20116
field mean 4.5050705905747
field stddev 1.5000287146106
field sum 90624
field sqrsum 453528
field min 3
field max 6
statistic Basic.rack[8].node[2].app 	throughput
field count 19986
field mean 9993.5
field stddev 5769.6055757738
field sum 199730091
field sqrsum 2661270309181
field min 1
field max 19986
statistic Basic.rack[8].node[2].app 	"End-to-End Delay"
field count 19986
field mean 1.4161697170821e-005
field stddev 5.2776104449726e-006
field sum 0.28303567965603
field sqrsum 4.5649112264238e-006
field min 8.992e-006
field max 4.5218059e-005
statistic Basic.rack[8].node[2].app 	hops
field count 19986
field mean 4.5022515761033
field stddev 1.5000358377685
field sum 89982
field sqrsum 450090
field min 3
field max 6
statistic Basic.rack[8].node[3].app 	throughput
field count 20021
field mean 10011
field stddev 5779.7092054878
field sum 200430231
field sqrsum 2675275913311
field min 1
field max 20021
statistic Basic.rack[8].node[3].app 	"End-to-End Delay"
field count 20021
field mean 1.4139271486791e-005
field stddev 5.2961024675901e-006
field sum 0.28308235443703
field sqrsum 4.5641132634763e-006
field min 8.992e-006
field max 4.4263194e-005
statistic Basic.rack[8].node[3].app 	hops
field count 20021
field mean 4.4940812147245
field stddev 1.5000257843929
field sum 89976
field sqrsum 449406
field min 3
field max 6
statistic Basic.rack[8].node[4].app 	throughput
field count 20004
field mean 10002.5
field stddev 5774.8017281981
field sum 200090010
field sqrsum 2668467070030
field min 1
field max 20004
statistic Basic.rack[8].node[4].app 	"End-to-End Delay"
field count 20004
field mean 1.4143481025197e-005
field stddev 5.2832497008649e-006
field sum 0.28292619442803
field sqrsum 4.55989954864e-006
field min 8.992e-006
field max 4.1002684e-005
statistic Basic.rack[8].node[4].app 	hops
field count 20004
field mean 4.496700659868
field stddev 1.5000338652637
field sum 89952
field sqrsum 449496
field min 3
field max 6
statistic Basic.rack[8].node[5].app 	throughput
field count 20186
field mean 10093.5
field stddev 5827.3406027106
field sum 203747391
field sqrsum 2741964472281
field min 1
field max 20186
statistic Basic.rack[8].node[5].app 	"End-to-End Delay"
field count 20186
field mean 1.4150613636978e-005
field stddev 5.3033664794663e-006
field sum 0.28564428687603
field sqrsum 4.6097591152662e-006
field min 8.992e-006
field max 5.0788553e-005
statistic Basic.rack[8].node[5].app 	hops
field count 20186
field mean 4.4979193500446
field stddev 1.5000357127728
field sum 90795
field sqrsum 453807
field min 3
field max 6
statistic Basic.rack[8].node[6].app 	throughput
field count 20004
field mean 10002.5
field stddev 5774.8017281981
field sum 200090010
field sqrsum 2668467070030
field min 1
field max 20004
statistic Basic.rack[8].node[6].app 	"End-to-End Delay"
field count 20004
field mean 1.414431575975e-005
field stddev 5.2798130122821e-006
field sum 0.28294289245803
field sqrsum 4.5596457510729e-006
field min 8.992e-006
field max 4.3376589e-005
statistic Basic.rack[8].node[6].app 	hops
field count 20004
field mean 4.496700659868
field stddev 1.5000338652637
field sum 89952
field sqrsum 449496
field min 3
field max 6
statistic Basic.rack[8].node[7].app 	throughput
field count 19845
field mean 9923
field stddev 5728.9023817831
field sum 196921935
field sqrsum 2605342840695
field min 1
field max 19845
statistic Basic.rack[8].node[7].app 	"End-to-End Delay"
field count 19845
field mean 1.4164315489697e-005
field stddev 5.2688592135296e-006
field sum 0.28109084089303
field sqrsum 4.5323462030366e-006
field min 8.992e-006
field max 4.088722e-005
statistic Basic.rack[8].node[7].app 	hops
field count 19845
field mean 4.5043083900227
field stddev 1.5000316067464
field sum 89388
field sqrsum 447282
field min 3
field max 6
statistic Basic.rack[8].node[8].app 	throughput
field count 20012
field mean 10006.5
field stddev 5777.1111292756
field sum 200250078
field sqrsum 2671669790650
field min 1
field max 20012
statistic Basic.rack[8].node[8].app 	"End-to-End Delay"
field count 20012
field mean 1.4124384633072e-005
field stddev 5.2573383893349e-006
field sum 0.28265718527703
field sqrsum 4.5454549786301e-006
field min 8.992e-006
field max 4.348655e-005
statistic Basic.rack[8].node[8].app 	hops
field count 20012
field mean 4.4931041375175
field stddev 1.5000216274652
field sum 89916
field sqrsum 449028
field min 3
field max 6
statistic Basic.rack[8].node[9].app 	throughput
field count 20183
field mean 10092
field stddev 5826.4745773066
field sum 203686836
field sqrsum 2740742169604
field min 1
field max 20183
statistic Basic.rack[8].node[9].app 	"End-to-End Delay"
field count 20183
field mean 1.4102878170987e-005
field stddev 5.2871409541532e-006
field sum 0.28463839012503
field sqrsum 4.5783853305242e-006
field min 8.992e-006
field max 4.3901058e-005
statistic Basic.rack[8].node[9].app 	hops
field count 20183
field mean 4.4863994450775
field stddev 1.4999755002074
field sum 90549
field sqrsum 451647
field min 3
field max 6
statistic Basic.rack[8].eps.queue[0] 	dropsum
field count 0
field mean nan
field stddev nan
field sum 0
field sqrsum 0
field min nan
field max nan
statistic Basic.rack[8].eps.queue[1] 	dropsum
field count 0
field mean nan
field stddev nan
field sum 0
field sqrsum 0
field min nan
field max nan
statistic Basic.rack[8].eps.queue[2] 	dropsum
field count 0
field mean nan
field stddev nan
field sum 0
field sqrsum 0
field min nan
field max nan
statistic Basic.rack[8].eps.queue[3] 	dropsum
field count 0
field mean nan
field stddev nan
field sum 0
field sqrsum 0
field min nan
field max nan
statistic Basic.rack[9].node[0].app 	throughput
field count 19907
field mean 9954
field stddev 5746.8002401336
field sum 198154278
field sqrsum 2629837526190
field min 1
field max 19907
statistic Basic.rack[9].node[0].app 	"End-to-End Delay"
field count 19907
field mean 1.4149613808712e-005
field stddev 5.3063024837479e-006
field sum 0.28167636209003
field sqrsum 4.5461019200689e-006
field min 8.992e-006
field max 5.147245e-005
statistic Basic.rack[9].node[0].app 	hops
field count 19907
field mean 4.4991711458281
field stddev 1.5000374476036
field sum 89565
field sqrsum 447759
field min 3
field max 6
statistic Basic.rack[9].node[1].app 	throughput
field count 19955
field mean 9978
field stddev 5760.6566465985
field sum 199110990
field sqrsum 2648906240630
field min 1
field max 19955
statistic Basic.rack[9].node[1].app 	"End-to-End Delay"
field count 19955
field mean 1.4180281347684e-005
field stddev 5.2373455212922e-006
field sum 0.28296751429303
field sqrsum 4.5598929568649e-006
field min 8.992e-006
field max 4.2392012e-005
statistic Basic.rack[9].node[1].app 	hops
field count 19955
field mean 4.5098471561012
field stddev 1.5000052626587
field sum 89994
field sqrsum 450756
field min 3
field max 6
statistic Basic.rack[9].node[2].app 	throughput
field count 19770
field mean 9885.5
field stddev 5707.2517466816
field sum 195436335
field sqrsum 2575916040745
field min 1
field max 19770
statistic Basic.rack[9].node[2].app 	"End-to-End Delay"
field count 19770
field mean 1.4106066363937e-005
field stddev 5.2447762541514e-006
field sum 0.27887693201503
field sqrsum 4.4776557958895e-006
field min 8.992e-006
field max 4.5386335e-005
statistic Basic.rack[9].node[2].app 	hops
field count 19770
field mean 4.4940819423369
field stddev 1.5000262628968
field sum 88848
field sqrsum 443772
field min 3
field max 6
statistic Basic.rack[9].node[3].app 	throughput
field count 19965
field mean 9983
field stddev 5763.5433979454
field sum 199310595
field sqrsum 2652890456315
field min 1
field max 19965
statistic Basic.rack[9].node[3].app 	"End-to-End Delay"
field count 19965
field mean 1.4153669562987e-005
field stddev 5.2942108052292e-006
field sum 0.28257801282503
field sqrsum 4.5590801482452e-006
field min 8.992e-006
field max 4.9390338e-005
statistic Basic.rack[9].node[3].app 	hops
field count 19965
field mean 4.5009767092412
field stddev 1.5000372491563
field sum 89862
field sqrsum 449388
field min 3
field max 6
statistic Basic.rack[9].node[4].app 	throughput
field count 19802
field mean 9901.5
field stddev 5716.4893509916
field sum 196069503
field sqrsum 2588444222105
field min 1
field max 19802
statistic Basic.rack[9].node[4].app 	"End-to-End Delay"
field count 19802
field mean 1.4128296174883e-005
field stddev 5.2594924335415e-006
field sum 0.27976852085503
field sqrsum 4.5003929463474e-006
field min 8.992e-006
field max 4.0907125e-005
statistic Basic.rack[9].node[4].app 	hops
field count 19802
field mean 4.503635996364
field stddev 1.5000334694558
field sum 89181
field sqrsum 446193
field min 3
field max 6
statistic Basic.rack[9].node[5].app 	throughput
field count 19961
field mean 9981
field stddev 5762.3886974067
field sum 199230741
field sqrsum 2651296290981
field min 1
field max 19961
statistic Basic.rack[9].node[5].app 	"End-to-End Delay"
field count 19961
field mean 1.4122978514204e-005
field stddev 5.2816391544848e-006
field sum 0.28190877412203
field sqrsum 4.5381899745686e-006
field min 8.992e-006
field max 4.8794944e-005
statistic Basic.rack[9].node[5].app 	hops
field count 19961
field mean 4.4951154751766
field stddev 1.5000296215985
field sum 89727
field sqrsum 448245
field min 3
field max 6
statistic Basic.rack[9].node[6].app 	throughput
field count 20072
field mean 10036.5
field stddev 5794.4316373567
field sum 201452628
field sqrsum 2695771917020
field min 1
field max 20072
statistic Basic.rack[9].node[6].app 	"End-to-End Delay"
field count 20072
field mean 1.4188560670338e-005
field stddev 5.2387100953364e-006
field sum 0.28479278977503
field sqrsum 4.5916299753834e-006
field min 8.992e-006
field max 4.3098399e-005
statistic Basic.rack[9].node[6].app 	hops
field count 20072
field mean 4.5195795137505
field stddev 1.4999095724673
field sum 90717
field sqrsum 455157
field min 3
field max 6
statistic Basic.rack[9].node[7].app 	throughput
field count 20092
field mean 10046.5
field stddev 5800.2051400504
field sum 201854278
field sqrsum 2703838053810
field min 1
field max 20092
statistic Basic.rack[9].node[7].app 	"End-to-End Delay"
field count 20092
field mean 1.4144576950479e-005
field stddev 5.2814868259566e-006
field sum 0.28419284008903
field sqrsum 4.5802079206511e-006
field min 8.992e-006
field max 4.348532e-005
statistic Basic.rack[9].node[7].app 	hops
field count 20092
field mean 4.4976109894485
field stddev 1.5000354271776
field sum 90366
field sqrsum 451638
field min 3
field max 6
statistic Basic.rack[9].node[8].app 	throughput
field count 19872
field mean 9936.5
field stddev 5736.6966104196
field sum 197458128
field sqrsum 2615991099120
field min 1
field max 19872
statistic Basic.rack[9].node[8].app 	"End-to-End Delay"
field count 19872
field mean 1.4101528230124e-005
field stddev 5.3172966619442e-006
field sum 0.28022556898903
field sqrsum 4.5134343476749e-006
field min 8.992e-006
field max 4.8967743e-005
statistic Basic.rack[9].node[8].app 	hops
field count 19872
field mean 4.4838466183575
field stddev 1.4999507610138
field sum 89103
field sqrsum 444231
field min 3
field max 6
statistic Basic.rack[9].node[9].app 	throughput
field count 19776
field mean 9888.5
field stddev 5708.9837974897
field sum 195554976
field sqrsum 2578261988576
field min 1
field max 19776
statistic Basic.rack[9].node[9].app 	"End-to-End Delay"
field count 19776
field mean 1.4063481495552e-005
field stddev 5.2260146840139e-006
field sum 0.27811941005603
field sqrsum 4.4514067397949e-006
field min 8.992e-006
field max 4.3661861e-005
statistic Basic.rack[9].node[9].app 	hops
field count 19776
field mean 4.4828580097087
field stddev 1.4999399712437
field sum 88653
field sqrsum 441909
field min 3
field max 6
statistic Basic.rack[9].eps.queue[0] 	dropsum
field count 0
field mean nan
field stddev nan
field sum 0
field sqrsum 0
field min nan
field max nan
statistic Basic.rack[9].eps.queue[1] 	dropsum
field count 0
field mean nan
field stddev nan
field sum 0
field sqrsum 0
field min nan
field max nan
statistic Basic.rack[9].eps.queue[2] 	dropsum
field count 0
field mean nan
field stddev nan
field sum 0
field sqrsum 0
field min nan
field max nan
statistic Basic.rack[9].eps.queue[3] 	dropsum
field count 0
field mean nan
field stddev nan
field sum 0
field sqrsum 0
field min nan
field max nan
statistic Basic.rack[10].node[0].app 	throughput
field count 20119
field mean 10060
field stddev 5807.9993686868
field sum 202397140
field sqrsum 2714752838820
field min 1
field max 20119
statistic Basic.rack[10].node[0].app 	"End-to-End Delay"
field count 20119
field mean 7.667330776829e-006
field stddev 4.3026813793557e-006
field sum 0.15425902789902
field sqrsum 1.5552008751711e-006
field min 8.496e-007
field max 3.4545323e-005
statistic Basic.rack[10].node[0].app 	hops
field count 20119
field mean 4.2512053282966
field stddev 0.82883490903285
field sum 85530
field sqrsum 377426
field min 3
field max 5
statistic Basic.rack[10].node[1].app 	throughput
field count 19706
field mean 9853.5
field stddev 5688.7765380616
field sum 194173071
field sqrsum 2550981082441
field min 1
field max 19706
statistic Basic.rack[10].node[1].app 	"End-to-End Delay"
field count 19706
field mean 7.7082564773177e-006
field stddev 4.3271771984014e-006
field sum 0.15189890214202
field sqrsum 1.5398412300216e-006
field min 8.496e-007
field max 3.5597247e-005
statistic Basic.rack[10].node[1].app 	hops
field count 19706
field mean 4.2489089617375
field stddev 0.83089608533626
field sum 83729
field sqrsum 369361
field min 3
field max 5
statistic Basic.rack[10].node[2].app 	throughput
field count 19872
field mean 9936.5
field stddev 5736.6966104196
field sum 197458128
field sqrsum 2615991099120
field min 1
field max 19872
statistic Basic.rack[10].node[2].app 	"End-to-End Delay"
field count 19872
field mean 7.6366699182781e-006
field stddev 4.3002398728536e-006
field sum 0.15175590461602
field sqrsum 1.5263655348615e-006
field min 8.496e-007
field max 3.4910249e-005
statistic Basic.rack[10].node[2].app 	hops
field count 19872
field mean 4.2434581320451
field stddev 0.83021272017785
field sum 84326
field sqrsum 371530
field min 3
field max 5
statistic Basic.rack[10].node[3].app 	throughput
field count 20056
field mean 10028.5
field stddev 5789.8128352017
field sum 201131596
field sqrsum 2689330570116
field min 1
field max 20056
statistic Basic.rack[10].node[3].app 	"End-to-End Delay"
field count 20056
field mean 7.666137104658e-006
field stddev 4.3321674960186e-006
field sum 0.15375204577102
field sqrsum 1.5550699894103e-006
field min 8.496e-007
field max 3.2826981e-005
statistic Basic.rack[10].node[3].app 	hops
field count 20056
field mean 4.2525428799362
field stddev 0.82759290301457
field sum 85289
field sqrsum 376431
field min 3
field max 5
statistic Basic.rack[10].node[4].app 	throughput
field count 20091
field mean 10046
field stddev 5799.9164649157
field sum 201834186
field sqrsum 2703434365346
field min 1
field max 20091
statistic Basic.rack[10].node[4].app 	"End-to-End Delay"
field count 20091
field mean 7.6558450076662e-006
field stddev 4.3067733197053e-006
field sum 0.15381358204902
field sqrsum 1.5502082194662e-006
field min 8.496e-007
field max 2.9038039e-005
statistic Basic.rack[10].node[4].app 	hops
field count 20091
field mean 4.2468269374347
field stddev 0.82948961552444
field sum 85323
field sqrsum 376175
field min 3
field max 5
statistic Basic.rack[10].node[5].app 	throughput
field count 20154
field mean 10077.5
field stddev 5818.1029984008
field sum 203101935
field sqrsum 2728945299305
field min 1
field max 20154
statistic Basic.rack[10].node[5].app 	"End-to-End Delay"
field count 20154
field mean 7.6896222177246e-006
field stddev 4.308183026027e-006
field sum 0.15497664617602
field sqrsum 1.5657604288493e-006
field min 8.496e-007
field max 3.2858213e-005
statistic Basic.rack[10].node[5].app 	hops
field count 20154
field mean 4.2520591445867
field stddev 0.82976495269329
field sum 85696
field sqrsum 378260
field min 3
field max 5
statistic Basic.rack[10].node[6].app 	throughput
field count 19822
field mean 9911.5
field stddev 5722.2628536853
field sum 196465753
field sqrsum 2596294925895
field min 1
field max 19822
statistic Basic.rack[10].node[6].app 	"End-to-End Delay"
field count 19822
field mean 7.7078282635466e-006
field stddev 4.2947649393594e-006
field sum 0.15278457184002
field sqrsum 1.5432357026961e-006
field min 8.496e-007
field max 3.3901125e-005
statistic Basic.rack[10].node[6].app 	hops
field count 19822
field mean 4.2413479971749
field stddev 0.83462816053901
field sum 84072
field sqrsum 370386
field min 3
field max 5
statistic Basic.rack[10].node[7].app 	throughput
field count 19926
field mean 9963.5
field stddev 5752.2850676927
field sum 198532701
field sqrsum 2637374577651
field min 1
field max 19926
statistic Basic.rack[10].node[7].app 	"End-to-End Delay"
field count 19926
field mean 7.6467382078701e-006
field stddev 4.3497153088316e-006
field sum 0.15236890553002
field sqrsum 1.5421065952204e-006
field min 8.496e-007
field max 3.1400101e-005
statistic Basic.rack[10].node[7].app 	hops
field count 19926
field mean 4.2463615376895
field stddev 0.82791968320061
field sum 84613
field sqrsum 372955
field min 3
field max 5
statistic Basic.rack[10].node[8].app 	throughput
field count 20012
field mean 10006.5
field stddev 5777.1111292756
field sum 200250078
field sqrsum 2671669790650
field min 1
field max 20012
statistic Basic.rack[10].node[8].app 	"End-to-End Delay"
field count 20012
field mean 7.6960898933651e-006
field stddev 4.3162339044951e-006
field sum 0.15401415094602
field sqrsum 1.5581091815235e-006
field min 8.496e-007
field max 3.0757151e-005
statistic Basic.rack[10].node[8].app 	hops
field count 20012
field mean 4.2575954427344
field stddev 0.82823757884882
field sum 85203
field sqrsum 376487
field min 3
field max 5
statistic Basic.rack[10].node[9].app 	throughput
field count 19796
field mean 9898.5
field stddev 5714.7573001834
field sum 195950706
field sqrsum 2586092100886
field min 1
field max 19796
statistic Basic.rack[10].node[9].app 	"End-to-End Delay"
field count 19796
field mean 7.6536659846951e-006
field stddev 4.2921628460923e-006
field sum 0.15151197183302
field sqrsum 1.524298617351e-006
field min 8.496e-007
field max 3.3433481e-005
statistic Basic.rack[10].node[9].app 	hops
field count 19796
field mean 4.2606587189331
field stddev 0.82555181084365
field sum 84344
field sqrsum 372852
field min 3
field max 5
statistic Basic.rack[10].eps.queue[0] 	dropsum
field count 0
field mean nan
field stddev nan
field sum 0
field sqrsum 0
field min nan
field max nan
statistic Basic.rack[10].eps.queue[1] 	dropsum
field count 0
field mean nan
field stddev nan
field sum 0
field sqrsum 0
field min nan
field max nan
statistic Basic.rack[10].eps.queue[2] 	dropsum
field count 0
field mean nan
field stddev nan
field sum 0
field sqrsum 0
field min nan
field max nan
statistic Basic.rack[10].eps.queue[3] 	dropsum
field count 0
field mean nan
field stddev nan
field sum 0
field sqrsum 0
field min nan
field max nan
statistic Basic.rack[11].node[0].app 	throughput
field count 20014
field mean 10007.5
field stddev 5777.688479545
field sum 200290105
field sqrsum 2672470871015
field min 1
field max 20014
statistic Basic.rack[11].node[0].app 	"End-to-End Delay"
field count 20014
field mean 7.6843245580604e-006
field stddev 4.3012252448031e-006
field sum 0.15379407170502
field sqrsum 1.5520548412195e-006
field min 8.496e-007
field max 3.5786356e-005
statistic Basic.rack[11].node[0].app 	hops
field count 20014
field mean 4.2465773958229
field stddev 0.83165945568967
field sum 84991
field sqrsum 374763
field min 3
field max 5
statistic Basic.rack[11].node[1].app 	throughput
field count 19834
field mean 9917.5
field stddev 5725.7269553015
field sum 196703695
field sqrsum 2601012958985
field min 1
field max 19834
statistic Basic.rack[11].node[1].app 	"End-to-End Delay"
field count 19834
field mean 7.6787122931845e-006
field stddev 4.3134176704048e-006
field sum 0.15229957962302
field sqrsum 1.5384689637614e-006
field min 8.496e-007
field max 3.0575351e-005
statistic Basic.rack[11].node[1].app 	hops
field count 19834
field mean 4.2524957144298
field stddev 0.82843571019012
field sum 84344
field sqrsum 372284
field min 3
field max 5
statistic Basic.rack[11].node[2].app 	throughput
field count 20152
field mean 10076.5
field stddev 5817.5256481314
field sum 203061628
field sqrsum 2728132972180
field min 1
field max 20152
statistic Basic.rack[11].node[2].app 	"End-to-End Delay"
field count 20152
field mean 7.6126859637268e-006
field stddev 4.3010265296274e-006
field sum 0.15341084754102
field sqrsum 1.5406385131406e-006
field min 8.496e-007
field max 3.0556098e-005
statistic Basic.rack[11].node[2].app 	hops
field count 20152
field mean 4.251141325923
field stddev 0.82622316588219
field sum 85669
field sqrsum 377947
field min 3
field max 5
statistic Basic.rack[11].node[3].app 	throughput
field count 20078
field mean 10039.5
field stddev 5796.1636881648
field sum 201573081
field sqrsum 2698190071239
field min 1
field max 20078
statistic Basic.rack[11].node[3].app 	"End-to-End Delay"
field count 20078
field mean 7.6736925283406e-006
field stddev 4.2817146891345e-006
field sum 0.15407239858402
field sqrsum 1.550377474633e-006
field min 8.496e-007
field max 2.9061751e-005
statistic Basic.rack[11].node[3].app 	hops
field count 20078
field mean 4.242653650762
field stddev 0.83259874554954
field sum 85184
field sqrsum 375324
field min 3
field max 5
statistic Basic.rack[11].node[4].app 	throughput
field count 20123
field mean 10062
field stddev 5809.1540692256
field sum 202477626
field sqrsum 2716372337874
field min 1
field max 20123
[...]
field sqrsum 4.5045473594465e-006
field min 8.992e-006
field max 4.0586854e-005
statistic Basic.rack[13].node[1].app 	hops
field count 19945
field mean 4.4936074204061
field stddev 1.5000239827288
field sum 89625
field sqrsum 447615
field min 3
field max 6
statistic Basic.rack[13].node[2].app 	throughput
field count 19892
field mean 9946.5
field stddev 5742.4701131133
field sum 197855778
field sqrsum 2623897375910
field min 1
field max 19892
statistic Basic.rack[13].node[2].app 	"End-to-End Delay"
field count 19892
field mean 1.4128665171327e-005
field stddev 5.2689324025465e-006
field sum 0.28104740758803
field sqrsum 4.5230316726285e-006
field min 8.992e-006
field max 4.5935512e-005
statistic Basic.rack[13].node[2].app 	hops
field count 19892
field mean 4.4915543937261
field stddev 1.5000139281465
field sum 89346
field sqrsum 446058
field min 3
field max 6
statistic Basic.rack[13].node[3].app 	throughput
field count 20207
field mean 10104
field stddev 5833.402780539
field sum 204171528
field sqrsum 2750530768040
field min 1
field max 20207
statistic Basic.rack[13].node[3].app 	"End-to-End Delay"
field count 20207
field mean 1.4162336280845e-005
field stddev 5.2806158792911e-006
field sum 0.28617832922703
field sqrsum 4.6163961063333e-006
field min 8.992e-006
field max 4.3065975e-005
statistic Basic.rack[13].node[3].app 	hops
field count 20207
field mean 4.5000742317019
field stddev 1.5000371153918
field sum 90933
field sqrsum 454671
field min 3
field max 6
statistic Basic.rack[13].node[4].app 	throughput
field count 20191
field mean 10096
field stddev 5828.7839783841
field sum 203848336
field sqrsum 2744002450896
field min 1
field max 20191
statistic Basic.rack[13].node[4].app 	"End-to-End Delay"
field count 20191
field mean 1.4156180954932e-005
field stddev 5.2618291226958e-006
field sum 0.28582744966103
field sqrsum 4.6052225143033e-006
field min 8.992e-006
field max 4.5865765e-005
statistic Basic.rack[13].node[4].app 	hops
field count 20191
field mean 4.5069090188698
field stddev 1.5000212346502
field sum 90999
field sqrsum 455553
field min 3
field max 6
statistic Basic.rack[13].node[5].app 	throughput
field count 19824
field mean 9912.5
field stddev 5722.8402039547
field sum 196505400
field sqrsum 2597080868200
field min 1
field max 19824
statistic Basic.rack[13].node[5].app 	"End-to-End Delay"
field count 19824
field mean 1.4083626632114e-005
field stddev 5.2441578892555e-006
field sum 0.27919381435503
field sqrsum 4.4772175677426e-006
field min 8.992e-006
field max 4.8477443e-005
statistic Basic.rack[13].node[5].app 	hops
field count 19824
field mean 4.486985472155
field stddev 1.4999813725628
field sum 88950
field sqrsum 443718
field min 3
field max 6
statistic Basic.rack[13].node[6].app 	throughput
field count 20068
field mean 10034.5
field stddev 5793.2769368179
field sum 201372346
field sqrsum 2694160617134
field min 1
field max 20068
statistic Basic.rack[13].node[6].app 	"End-to-End Delay"
field count 20068
field mean 1.41171554417e-005
field stddev 5.251476582121e-006
field sum 0.28330307540403
field sqrsum 4.5528414048632e-006
field min 8.992e-006
field max 4.2185593e-005
statistic Basic.rack[13].node[6].app 	hops
field count 20068
field mean 4.4982060992625
field stddev 1.5000363016084
field sum 90270
field sqrsum 451206
field min 3
field max 6
statistic Basic.rack[13].node[7].app 	throughput
field count 20234
field mean 10117.5
field stddev 5841.1970091754
field sum 204717495
field sqrsum 2761570768385
field min 1
field max 20234
statistic Basic.rack[13].node[7].app 	"End-to-End Delay"
field count 20234
field mean 1.4099546717408e-005
field stddev 5.2431835936199e-006
field sum 0.28529022828003
field sqrsum 4.5786877825702e-006
field min 8.992e-006
field max 4.7227497e-005
statistic Basic.rack[13].node[7].app 	hops
field count 20234
field mean 4.4905110210537
field stddev 1.5000070530822
field sum 90861
field sqrsum 453537
field min 3
field max 6
statistic Basic.rack[13].node[8].app 	throughput
field count 20004
field mean 10002.5
field stddev 5774.8017281981
field sum 200090010
field sqrsum 2668467070030
field min 1
field max 20004
statistic Basic.rack[13].node[8].app 	"End-to-End Delay"
field count 20004
field mean 1.411461925665e-005
field stddev 5.265209481207e-006
field sum 0.28234884361003
field sqrsum 4.5397782100235e-006
field min 8.992e-006
field max 4.7959374e-005
statistic Basic.rack[13].node[8].app 	hops
field count 20004
field mean 4.4899520095981
field stddev 1.5000038386514
field sum 89817
field sqrsum 448281
field min 3
field max 6
statistic Basic.rack[13].node[9].app 	throughput
field count 19822
field mean 9911.5
field stddev 5722.2628536853
field sum 196465753
field sqrsum 2596294925895
field min 1
field max 19822
statistic Basic.rack[13].node[9].app 	"End-to-End Delay"
field count 19822
field mean 1.4097263851732e-005
field stddev 5.2734197276706e-006
field sum 0.27943596406903
field sqrsum 4.4904838245712e-006
field min 8.992e-006
field max 4.511463e-005
statistic Basic.rack[13].node[9].app 	hops
field count 19822
field mean 4.4863787710625
field stddev 1.4999759893843
field sum 88929
field sqrsum 443565
field min 3
field max 6
statistic Basic.rack[13].eps.queue[0] 	dropsum
field count 0
field mean nan
field stddev nan
field sum 0
field sqrsum 0
field min nan
field max nan
statistic Basic.rack[13].eps.queue[1] 	dropsum
field count 0
field mean nan
field stddev nan
field sum 0
field sqrsum 0
field min nan
field max nan
statistic Basic.rack[13].eps.queue[2] 	dropsum
field count 0
field mean nan
field stddev nan
field sum 0
field sqrsum 0
field min nan
field max nan
statistic Basic.rack[13].eps.queue[3] 	dropsum
field count 0
field mean nan
field stddev nan
field sum 0
field sqrsum 0
field min nan
field max nan
statistic Basic.rack[14].node[0].app 	throughput
field count 19961
field mean 9981
field stddev 5762.3886974067
field sum 199230741
field sqrsum 2651296290981
field min 1
field max 19961
statistic Basic.rack[14].node[0].app 	"End-to-End Delay"
field count 19961
field mean 7.6499588310717e-006
field stddev 4.3033061666951e-006
field sum 0.15270082822702
field sqrsum 1.537783190935e-006
field min 8.496e-007
field max 3.4571071e-005
statistic Basic.rack[14].node[0].app 	hops
field count 19961
field mean 4.2504884524823
field stddev 0.82858372471171
field sum 84844
field sqrsum 374332
field min 3
field max 5
statistic Basic.rack[14].node[1].app 	throughput
field count 19992
field mean 9996.5
field stddev 5771.3376265819
field sum 199850028
field sqrsum 2663667789860
field min 1
field max 19992
statistic Basic.rack[14].node[1].app 	"End-to-End Delay"
field count 19992
field mean 7.6846414851451e-006
field stddev 4.3129481546717e-006
field sum 0.15363135257102
field sqrsum 1.5524648873879e-006
field min 8.496e-007
field max 3.2544204e-005
statistic Basic.rack[14].node[1].app 	hops
field count 19992
field mean 4.2541516606643
field stddev 0.82836680088522
field sum 85049
field sqrsum 375529
field min 3
field max 5
statistic Basic.rack[14].node[2].app 	throughput
field count 19777
field mean 9889
field stddev 5709.2724726244
field sum 195574753
field sqrsum 2578653118305
field min 1
field max 19777
statistic Basic.rack[14].node[2].app 	"End-to-End Delay"
field count 19777
field mean 7.6992684335856e-006
field stddev 4.3040397684392e-006
field sum 0.15226843181102
field sqrsum 1.5387011511748e-006
field min 8.496e-007
field max 3.3602454e-005
statistic Basic.rack[14].node[2].app 	hops
field count 19777
field mean 4.2538302068059
field stddev 0.82994169318665
field sum 84128
field sqrsum 371488
field min 3
field max 5
statistic Basic.rack[14].node[3].app 	throughput
field count 20050
field mean 10025.5
field stddev 5788.0807843936
field sum 201011275
field sqrsum 2686917712925
field min 1
field max 20050
statistic Basic.rack[14].node[3].app 	"End-to-End Delay"
field count 20050
field mean 7.6771305289786e-006
field stddev 4.3039857108488e-006
field sum 0.15392646710602
field sqrsum 1.5531071301782e-006
field min 8.496e-007
field max 2.8884597e-005
statistic Basic.rack[14].node[3].app 	hops
field count 20050
field mean 4.2457356608479
field stddev 0.83109611604349
field sum 85127
field sqrsum 375275
field min 3
field max 5
statistic Basic.rack[14].node[4].app 	throughput
field count 20066
field mean 10033.5
field stddev 5792.6995865486
field sum 201332211
field sqrsum 2693355208021
field min 1
field max 20066
statistic Basic.rack[14].node[4].app 	"End-to-End Delay"
field count 20066
field mean 7.7109666128786e-006
field stddev 4.3349167239631e-006
field sum 0.15472825605402
field sqrsum 1.5701559242706e-006
field min 8.496e-007
field max 3.8033064e-005
statistic Basic.rack[14].node[4].app 	hops
field count 20066
field mean 4.2529652147912
field stddev 0.82991503291599
field sum 85340
field sqrsum 376768
field min 3
field max 5
statistic Basic.rack[14].node[5].app 	throughput
field count 19753
field mean 9877
field stddev 5702.3442693919
field sum 195100381
field sqrsum 2569276917389
field min 1
field max 19753
statistic Basic.rack[14].node[5].app 	"End-to-End Delay"
field count 19753
field mean 7.6333272477103e-006
field stddev 4.2804987049648e-006
field sum 0.15078111312402
field sqrsum 1.5128709405613e-006
field min 8.496e-007
field max 2.9244634e-005
statistic Basic.rack[14].node[5].app 	hops
field count 19753
field mean 4.2476079582848
field stddev 0.82904779406101
field sum 83903
field sqrsum 369963
field min 3
field max 5
statistic Basic.rack[14].node[6].app 	throughput
field count 19826
field mean 9913.5
field stddev 5723.417554224
field sum 196545051
field sqrsum 2597866969101
field min 1
field max 19826
statistic Basic.rack[14].node[6].app 	"End-to-End Delay"
field count 19826
field mean 7.6278110887735e-006
field stddev 4.3202816433098e-006
field sum 0.15122898264602
field sqrsum 1.5235764344631e-006
field min 8.496e-007
field max 3.1414178e-005
statistic Basic.rack[14].node[6].app 	hops
field count 19826
field mean 4.248764248966
field stddev 0.82725010434417
field sum 84236
field sqrsum 371466
field min 3
field max 5
statistic Basic.rack[14].node[7].app 	throughput
field count 19882
field mean 9941.5
field stddev 5739.5833617665
field sum 197656903
field sqrsum 2619942249265
field min 1
field max 19882
statistic Basic.rack[14].node[7].app 	"End-to-End Delay"
field count 19882
field mean 7.6739199529233e-006
field stddev 4.3139331661296e-006
field sum 0.15257287650402
field sqrsum 1.5408178362117e-006
field min 8.496e-007
field max 3.7469338e-005
statistic Basic.rack[14].node[7].app 	hops
field count 19882
field mean 4.2410723267277
field stddev 0.83216427241779
field sum 84321
field sqrsum 371379
field min 3
field max 5
statistic Basic.rack[14].node[8].app 	throughput
field count 20163
field mean 10082
field stddev 5820.7010746129
field sum 203283366
field sqrsum 2732602766894
field min 1
field max 20163
statistic Basic.rack[14].node[8].app 	"End-to-End Delay"
field count 20163
field mean 7.6858766948877e-006
field stddev 4.3199187578713e-006
field sum 0.15497033179902
field sqrsum 1.5673400181534e-006
field min 8.496e-007
field max 3.7892322e-005
statistic Basic.rack[14].node[8].app 	hops
field count 20163
field mean 4.2532361255766
field stddev 0.82884512712434
field sum 85758
field sqrsum 378600
field min 3
field max 5
statistic Basic.rack[14].node[9].app 	throughput
field count 20061
field mean 10031
field stddev 5791.2562108751
field sum 201231891
field sqrsum 2691342387531
field min 1
field max 20061
statistic Basic.rack[14].node[9].app 	"End-to-End Delay"
field count 20061
field mean 7.697433267884e-006
field stddev 4.3003845622665e-006
field sum 0.15441820878702
field sqrsum 1.5595996035949e-006
field min 8.496e-007
field max 2.9817614e-005
statistic Basic.rack[14].node[9].app 	hops
field count 20061
field mean 4.2477942276058
field stddev 0.83149659348289
field sum 85215
field sqrsum 375845
field min 3
field max 5
statistic Basic.rack[14].eps.queue[0] 	dropsum
field count 0
field mean nan
field stddev nan
field sum 0
field sqrsum 0
field min nan
field max nan
statistic Basic.rack[14].eps.queue[1] 	dropsum
field count 0
field mean nan
field stddev nan
field sum 0
field sqrsum 0
field min nan
field max nan
statistic Basic.rack[14].eps.queue[2] 	dropsum
field count 0
field mean nan
field stddev nan
field sum 0
field sqrsum 0
field min nan
field max nan
statistic Basic.rack[14].eps.queue[3] 	dropsum
field count 0
field mean nan
field stddev nan
field sum 0
field sqrsum 0
field min nan
field max nan
statistic Basic.rack[15].node[0].app 	throughput
field count 20272
field mean 10136.5
field stddev 5852.1666642934
field sum 205487128
field sqrsum 2777158534920
field min 1
field max 20272
statistic Basic.rack[15].node[0].app 	"End-to-End Delay"
field count 20272
field mean 7.6555405839592e-006
field stddev 4.3097638123839e-006
field sum 0.15519311871802
field sqrsum 1.5646020724438e-006
field min 8.496e-007
field max 3.2110511e-005
statistic Basic.rack[15].node[0].app 	hops
field count 20272
field mean 4.2463989739542
field stddev 0.82939190621678
field sum 86083
field sqrsum 379487
field min 3
field max 5
statistic Basic.rack[15].node[1].app 	throughput
field count 20131
field mean 10066
field stddev 5811.463470303
field sum 202638646
field sqrsum 2719613267966
field min 1
field max 20131
statistic Basic.rack[15].node[1].app 	"End-to-End Delay"
field count 20131
field mean 7.6795231501178e-006
field stddev 4.3283220488764e-006
field sum 0.15459648053502
field sqrsum 1.5643501546999e-006
field min 8.496e-007
field max 2.8564594e-005
statistic Basic.rack[15].node[1].app 	hops
field count 20131
field mean 4.2426605732452
field stddev 0.83125731771288
field sum 85409
field sqrsum 376271
field min 3
field max 5
statistic Basic.rack[15].node[2].app 	throughput
field count 20180
field mean 10090.5
field stddev 5825.6085519025
field sum 203626290
field sqrsum 2739520230230
field min 1
field max 20180
statistic Basic.rack[15].node[2].app 	"End-to-End Delay"
field count 20180
field mean 7.6658365952438e-006
field stddev 4.2983638273502e-006
field sum 0.15469658249202
field sqrsum 1.5587045468269e-006
field min 8.496e-007
field max 3.1254563e-005
statistic Basic.rack[15].node[2].app 	hops
field count 20180
field mean 4.246828543112
field stddev 0.83054416441095
field sum 85701
field sqrsum 377877
field min 3
field max 5
statistic Basic.rack[15].node[3].app 	throughput
field count 19969
field mean 9985
field stddev 5764.6980984841
field sum 199390465
field sqrsum 2654485260545
field min 1
field max 19969
statistic Basic.rack[15].node[3].app 	"End-to-End Delay"
field count 19969
field mean 7.6758873078282e-006
field stddev 4.3171654643674e-006
field sum 0.15327979365002
field sqrsum 1.5487203621946e-006
field min 8.496e-007
field max 3.7246775e-005
statistic Basic.rack[15].node[3].app 	hops
field count 19969
field mean 4.2522409735089
field stddev 0.82868683216705
field sum 84913
field sqrsum 374783
field min 3
field max 5
statistic Basic.rack[15].node[4].app 	throughput
field count 19923
field mean 9962
field stddev 5751.4190422886
field sum 198472926
field sqrsum 2636183560774
field min 1
field max 19923
statistic Basic.rack[15].node[4].app 	"End-to-End Delay"
field count 19923
field mean 7.6906708805412e-006
field stddev 4.2864742954414e-006
field sum 0.15322123595302
field sqrsum 1.544418174107e-006
field min 8.496e-007
field max 3.2938839e-005
statistic Basic.rack[15].node[4].app 	hops
field count 19923
field mean 4.2544797470261
field stddev 0.82980408889695
field sum 84762
field sqrsum 374336
field min 3
field max 5
statistic Basic.rack[15].node[5].app 	throughput
field count 20158
field mean 10079.5
field stddev 5819.2576989395
field sum 203182561
field sqrsum 2730570437279
field min 1
field max 20158
statistic Basic.rack[15].node[5].app 	"End-to-End Delay"
field count 20158
field mean 7.6595929514347e-006
field stddev 4.3193788893597e-006
field sum 0.15440207471502
field sqrsum 1.5587268773074e-006
field min 8.496e-007
field max 3.6402107e-005
statistic Basic.rack[15].node[5].app 	hops
field count 20158
field mean 4.2495783311836
field stddev 0.82872031979941
field sum 85663
field sqrsum 377875
field min 3
field max 5
statistic Basic.rack[15].node[6].app 	throughput
field count 20124
field mean 10062.5
field stddev 5809.4427443603
field sum 202497750
field sqrsum 2716777313250
field min 1
field max 20124
statistic Basic.rack[15].node[6].app 	"End-to-End Delay"
field count 20124
field mean 7.6893096817741e-006
field stddev 4.2971612127674e-006
field sum 0.15473966803602
field sqrsum 1.5614243854762e-006
field min 8.496e-007
field max 3.5333459e-005
statistic Basic.rack[15].node[6].app 	hops
field count 20124
field mean 4.2435400516796
field stddev 0.83271007142232
field sum 85397
field sqrsum 376339
field min 3
field max 5
statistic Basic.rack[15].node[7].app 	throughput
field count 19881
field mean 9941
field stddev 5739.2946866318
field sum 197637021
field sqrsum 2619546955341
field min 1
field max 19881
statistic Basic.rack[15].node[7].app 	"End-to-End Delay"
field count 19881
field mean 7.6587387761693e-006
field stddev 4.2978656405348e-006
field sum 0.15226338560902
field sqrsum 1.5333618789487e-006
field min 8.496e-007
field max 3.1787695e-005
statistic Basic.rack[15].node[7].app 	hops
field count 19881
field mean 4.248880841004
field stddev 0.82924833235642
field sum 84472
field sqrsum 372582
field min 3
field max 5
statistic Basic.rack[15].node[8].app 	throughput
field count 20208
field mean 10104.5
field stddev 5833.6914556737
field sum 204191736
field sqrsum 2750939131304
field min 1
field max 20208
statistic Basic.rack[15].node[8].app 	"End-to-End Delay"
field count 20208
field mean 7.6275331135205e-006
field stddev 4.3108402036938e-006
field sum 0.15413718915802
field sqrsum 1.5512001316186e-006
field min 8.496e-007
field max 3.1816553e-005
statistic Basic.rack[15].node[8].app 	hops
field count 20208
field mean 4.2418349168646
field stddev 0.82959894641987
field sum 85719
field sqrsum 377513
field min 3
field max 5
statistic Basic.rack[15].node[9].app 	throughput
field count 19919
field mean 9960
field stddev 5750.2643417499
field sum 198393240
field sqrsum 2634596096120
field min 1
field max 19919
statistic Basic.rack[15].node[9].app 	"End-to-End Delay"
field count 19919
field mean 7.6765183617662e-006
field stddev 4.3098290369528e-006
field sum 0.15290856924802
field sqrsum 1.5437748467002e-006
field min 8.496e-007
field max 3.2275891e-005
statistic Basic.rack[15].node[9].app 	hops
field count 19919
field mean 4.2472513680406
field stddev 0.83041656805102
field sum 84601
field sqrsum 373057
field min 3
field max 5
statistic Basic.rack[15].eps.queue[0] 	dropsum
field count 0
field mean nan
field stddev nan
field sum 0
field sqrsum 0
field min nan
field max nan
statistic Basic.rack[15].eps.queue[1] 	dropsum
field count 0
field mean nan
field stddev nan
field sum 0
field sqrsum 0
field min nan
field max nan
statistic Basic.rack[15].eps.queue[2] 	dropsum
field count 0
field mean nan
field stddev nan
field sum 0
field sqrsum 0
field min nan
field max nan
statistic Basic.rack[15].eps.queue[3] 	dropsum
field count 0
field mean nan
field stddev nan
field sum 0
field sqrsum 0
field min nan
field max nan
