version 2
run Basic-58-20180510-18:44:33-17584
attr configname Basic
attr datetime 20180510-18:44:33
attr experiment Basic
attr inifile omnetpp.ini
attr iterationvars "$0=exponential(0.08 ms), $1=6, $2=4"
attr iterationvarsf exponential(0.08_ms),6,4-
attr measurement "$0=exponential(0.08 ms), $1=6, $2=4"
attr network Networks.Basic
attr processid 17584
attr repetition 0
attr replication #0
attr resultdir results
attr runnumber 58
attr seedset 58
param **.frameCapacity 50
param **.packetLength "1024 bytes"
param **.pattern 6
param **.sendIaTime "exponential(0.08 ms)"
param **.tp 4

statistic Basic.rack[0].node[0].app 	throughput
field count 123844
field mean 61922.5
field stddev 35750.827706036
field sum 7668730090
field sqrsum 6.3315336242067e+014
field min 1
field max 123844
statistic Basic.rack[0].node[0].app 	"End-to-End Delay"
field count 123844
field mean 7.8439176485639e-005
field stddev 0.00011026176324249
field sum 9.7142213726875
field sqrsum 0.0022676161703472
field min 8.496e-007
field max 0.000731241931
statistic Basic.rack[0].node[0].app 	hops
field count 123844
field mean 5.1587642518007
field stddev 0.68577842003362
field sum 638882
field sqrsum 3354084
field min 4
field max 6
statistic Basic.rack[0].node[1].app 	throughput
field count 123900
field mean 61950.5
field stddev 35766.993513573
field sum 7675666950
field sqrsum 6.3401264862565e+014
field min 1
field max 123900
statistic Basic.rack[0].node[1].app 	"End-to-End Delay"
field count 123900
field mean 7.8099806759116e-005
field stddev 0.00011026474423834
field sum 9.6765660574544
field sqrsum 0.0022621408634043
field min 8.496e-007
field max 0.000729292373
statistic Basic.rack[0].node[1].app 	hops
field count 123900
field mean 5.1607748184019
field stddev 0.685346658938
field sum 639420
field sqrsum 3358098
field min 4
field max 6
statistic Basic.rack[0].node[2].app 	throughput
field count 124058
field mean 62029.5
field stddev 35812.60418484
field sum 7695255711
field sqrsum 6.3644125374873e+014
field min 1
field max 124058
statistic Basic.rack[0].node[2].app 	"End-to-End Delay"
field count 124058
field mean 7.8960099288231e-005
field stddev 0.00011094537570128
field sum 9.7956319974994
field sqrsum 0.0023004663533655
field min 8.496e-007
field max 0.000752201292
statistic Basic.rack[0].node[2].app 	hops
field count 124058
field mean 5.1619081397411
field stddev 0.68630065836479
field sum 640376
field sqrsum 3363994
field min 4
field max 6
statistic Basic.rack[0].node[3].app 	throughput
field count 124267
field mean 62134
field stddev 35872.937287971
field sum 7721205778
field sqrsum 6.3966329267841e+014
field min 1
field max 124267
statistic Basic.rack[0].node[3].app 	"End-to-End Delay"
field count 124267
field mean 7.8655423950006e-005
field stddev 0.00011079885647952
field sum 9.7742735679953
field sqrsum 0.0022943370881778
field min 8.496e-007
field max 0.000774827962
statistic Basic.rack[0].node[3].app 	hops
field count 124267
field mean 5.160871349594
field stddev 0.6860700187597
field sum 641326
field sqrsum 3368292
field min 4
field max 6
statistic Basic.rack[0].node[4].app 	throughput
field count 123810
field mean 61905.5
field stddev 35741.01275146
field sum 7664519955
field sqrsum 6.3263203192568e+014
field min 1
field max 123810
statistic Basic.rack[0].node[4].app 	"End-to-End Delay"
field count 123810
field mean 7.8209751558465e-005
field stddev 0.00011035954687068
field sum 9.6831493404535
field sqrsum 0.0022652149399718
field min 8.496e-007
field max 0.000749186134
statistic Basic.rack[0].node[4].app 	hops
field count 123810
field mean 5.1586301591148
field stddev 0.68529604582817
field sum 638690
field sqrsum 3352910
field min 4
field max 6
statistic Basic.rack[0].node[5].app 	throughput
field count 124184
field mean 62092.5
field stddev 35848.977251799
field sum 7710895020
field sqrsum 6.3838242840746e+014
field min 1
field max 124184
statistic Basic.rack[0].node[5].app 	"End-to-End Delay"
field count 124184
field mean 7.7912527241774e-005
field stddev 0.00010984045119706
field sum 9.6754892829925
field sqrsum 0.0022521003687398
field min 8.496e-007
field max 0.000729674185
statistic Basic.rack[0].node[5].app 	hops
field count 124184
field mean 5.1583295754687
field stddev 0.68446582411416
field sum 640582
field sqrsum 3362512
field min 4
field max 6
statistic Basic.rack[0].node[6].app 	throughput
field count 123925
field mean 61963
field stddev 35774.210391938
field sum 7678764775
field sqrsum 6.3439650941618e+014
field min 1
field max 123925
statistic Basic.rack[0].node[6].app 	"End-to-End Delay"
field count 123925
field mean 7.8708944959195e-005
field stddev 0.00011076570367439
field sum 9.7540060040683
field sqrsum 0.0022881561722814
field min 8.496e-007
field max 0.000745636885
statistic Basic.rack[0].node[6].app 	hops
field count 123925
field mean 5.1582489408917
field stddev 0.68602023991268
field sum 639236
field sqrsum 3355660
field min 4
field max 6
statistic Basic.rack[0].node[7].app 	throughput
field count 124168
field mean 62084.5
field stddev 35844.358449645
field sum 7708908196
field sqrsum 6.3813571155668e+014
field min 1
field max 124168
statistic Basic.rack[0].node[7].app 	"End-to-End Delay"
field count 124168
field mean 7.8119557427086e-005
field stddev 0.00011017652959398
field sum 9.6999492066064
field sqrsum 0.0022650025214849
field min 8.496e-007
field max 0.000774979814
statistic Basic.rack[0].node[7].app 	hops
field count 124168
field mean 5.1583902454739
field stddev 0.68452765971085
field sum 640507
field sqrsum 3362167
field min 4
field max 6
statistic Basic.rack[0].node[8].app 	throughput
field count 124025
field mean 62013
field stddev 35803.077905398
field sum 7691162325
field sqrsum 6.3593350195952e+014
field min 1
field max 124025
statistic Basic.rack[0].node[8].app 	"End-to-End Delay"
field count 124025
field mean 7.8496169739483e-005
field stddev 0.00011084959339963
field sum 9.7354874519394
field sqrsum 0.0022881597909517
field min 8.496e-007
field max 0.000755381383
statistic Basic.rack[0].node[8].app 	hops
field count 124025
field mean 5.1573069945575
field stddev 0.68738401140919
field sum 639635
field sqrsum 3357395
field min 4
field max 6
statistic Basic.rack[0].node[9].app 	throughput
field count 123239
field mean 61620
field stddev 35576.179249605
field sum 7593987180
field sqrsum 6.2391945537974e+014
field min 1
field max 123239
statistic Basic.rack[0].node[9].app 	"End-to-End Delay"
field count 123239
field mean 7.8223734753752e-005
field stddev 0.00011025829998614
field sum 9.6402148473176
field sqrsum 0.0022522847536996
field min 8.496e-007
field max 0.000717676133
statistic Basic.rack[0].node[9].app 	hops
field count 123239
field mean 5.161604686828
field stddev 0.6870765652178
field sum 636111
field sqrsum 3341531
field min 4
field max 6
statistic Basic.rack[0].eps.queue[0] 	dropsum
field count 0
field mean nan
field stddev nan
field sum 0
field sqrsum 0
field min nan
field max nan
statistic Basic.rack[0].eps.queue[1] 	dropsum
field count 0
field mean nan
field stddev nan
field sum 0
field sqrsum 0
field min nan
field max nan
statistic Basic.rack[0].eps.queue[2] 	dropsum
field count 0
field mean nan
field stddev nan
field sum 0
field sqrsum 0
field min nan
field max nan
statistic Basic.rack[0].eps.queue[3] 	dropsum
field count 0
field mean nan
field stddev nan
field sum 0
field sqrsum 0
field min nan
field max nan
statistic Basic.rack[1].node[0].app 	throughput
field count 123859
field mean 61930
field stddev 35755.157833055
field sum 7670587870
field sqrsum 6.3338345218951e+014
field min 1
field max 123859
statistic Basic.rack[1].node[0].app 	"End-to-End Delay"
field count 123859
field mean 8.2860949335407e-005
field stddev 0.00010758046719391
field sum 10.263074323734
field sqrsum 0.0022838856947675
field min 8.496e-007
field max 0.000591646126
statistic Basic.rack[1].node[0].app 	hops
field count 123859
field mean 5.1608361120306
field stddev 0.68696384581378
field sum 639216
field sqrsum 3357340
field min 4
field max 6
statistic Basic.rack[1].node[1].app 	throughput
field count 124286
field mean 62143.5
field stddev 35878.422115528
field sum 7723567041
field sqrsum 6.3995674336083e+014
field min 1
field max 124286
statistic Basic.rack[1].node[1].app 	"End-to-End Delay"
field count 124286
field mean 8.2849439154258e-005
field stddev 0.00010745916900495
field sum 10.297025394726
field sqrsum 0.0022882804611173
field min 8.496e-007
field max 0.000531198988
statistic Basic.rack[1].node[1].app 	hops
field count 124286
field mean 5.158891588755
field stddev 0.68620044715019
field sum 641178
field sqrsum 3366290
field min 4
field max 6
statistic Basic.rack[1].node[2].app 	throughput
field count 124060
field mean 62030.5
field stddev 35813.181535109
field sum 7695503830
field sqrsum 6.3647203526781e+014
field min 1
field max 124060
statistic Basic.rack[1].node[2].app 	"End-to-End Delay"
field count 124060
field mean 8.3125916613817e-005
field stddev 0.00010769315128971
field sum 10.31260121511
field sqrsum 0.002296057739258
field min 8.496e-007
field max 0.000557776456
statistic Basic.rack[1].node[2].app 	hops
field count 124060
field mean 5.1620748025149
field stddev 0.68549744974567
field sum 640407
field sqrsum 3364125
field min 4
field max 6
statistic Basic.rack[1].node[3].app 	throughput
field count 123762
field mean 61881.5
field stddev 35727.156344999
field sum 7658578203
field sqrsum 6.3189652323252e+014
field min 1
field max 123762
statistic Basic.rack[1].node[3].app 	"End-to-End Delay"
field count 123762
field mean 8.2784240573983e-005
field stddev 0.00010737623431261
field sum 10.245543181917
field sqrsum 0.0022750912300712
field min 8.496e-007
field max 0.000523599354
statistic Basic.rack[1].node[3].app 	hops
field count 123762
field mean 5.1586755223736
field stddev 0.68495384678039
field sum 638448
field sqrsum 3351610
field min 4
field max 6
statistic Basic.rack[1].node[4].app 	throughput
field count 123215
field mean 61608
field stddev 35569.251046374
field sum 7591029720
field sqrsum 6.2355501497644e+014
field min 1
field max 123215
statistic Basic.rack[1].node[4].app 	"End-to-End Delay"
field count 123215
field mean 8.3166397139279e-005
field stddev 0.00010772008515043
field sum 10.247347623516
field sqrsum 0.0022819630156774
field min 8.496e-007
field max 0.000543337339
statistic Basic.rack[1].node[4].app 	hops
field count 123215
field mean 5.1586657468652
field stddev 0.68669807356062
field sum 635625
field sqrsum 3337079
field min 4
field max 6
statistic Basic.rack[1].node[5].app 	throughput
field count 124208
field mean 62104.5
field stddev 35855.905455029
field sum 7713875736
field sqrsum 6.387526229033e+014
field min 1
field max 124208
statistic Basic.rack[1].node[5].app 	"End-to-End Delay"
field count 124208
field mean 8.2700608119303e-005
field stddev 0.00010722275386884
field sum 10.272077133282
field sqrsum 0.0022774799958479
field min 8.496e-007
field max 0.000533431293
statistic Basic.rack[1].node[5].app 	hops
field count 124208
field mean 5.1590477263944
field stddev 0.68627982223371
field sum 640795
field sqrsum 3364391
field min 4
field max 6
statistic Basic.rack[1].node[6].app 	throughput
field count 123724
field mean 61862.5
field stddev 35716.186689884
field sum 7653875950
field sqrsum 6.3131464998385e+014
field min 1
field max 123724
statistic Basic.rack[1].node[6].app 	"End-to-End Delay"
field count 123724
field mean 8.2911094422258e-005
field stddev 0.0001076054234431
field sum 10.258092246299
field sqrsum 0.002283089259145
field min 8.496e-007
field max 0.000588290662
statistic Basic.rack[1].node[6].app 	hops
field count 123724
field mean 5.1586676796741
field stddev 0.68609805527638
field sum 638251
field sqrsum 3350765
field min 4
field max 6
statistic Basic.rack[1].node[7].app 	throughput
field count 123890
field mean 61945.5
field stddev 35764.106762227
field sum 7674427995
field sqrsum 6.3385914767636e+014
field min 1
field max 123890
statistic Basic.rack[1].node[7].app 	"End-to-End Delay"
field count 123890
field mean 8.2408146589252e-005
field stddev 0.00010720069794338
field sum 10.209545280942
field sqrsum 0.0022650808085754
field min 8.496e-007
field max 0.000604133568
statistic Basic.rack[1].node[7].app 	hops
field count 123890
field mean 5.1591653886512
field stddev 0.68439052845886
field sum 639169
field sqrsum 3355607
field min 4
field max 6
statistic Basic.rack[1].node[8].app 	throughput
field count 123695
field mean 61848
field stddev 35707.815110981
field sum 7650288360
field sqrsum 6.3087082922292e+014
field min 1
field max 123695
statistic Basic.rack[1].node[8].app 	"End-to-End Delay"
field count 123695
field mean 8.2014480602914e-005
field stddev 0.00010665569065542
field sum 10.144781178177
field sqrsum 0.0022390921829346
field min 8.496e-007
field max 0.000626513497
statistic Basic.rack[1].node[8].app 	hops
field count 123695
field mean 5.1594405594406
field stddev 0.68545538846934
field sum 638197
field sqrsum 3350857
field min 4
field max 6
statistic Basic.rack[1].node[9].app 	throughput
field count 124192
field mean 62096.5
field stddev 35851.286652876
field sum 7711888528
field sqrsum 6.3850581067576e+014
field min 1
field max 124192
statistic Basic.rack[1].node[9].app 	"End-to-End Delay"
field count 124192
field mean 8.2565676774189e-005
field stddev 0.00010698747442545
field sum 10.25399652994
field sqrsum 0.0022681580510023
field min 8.496e-007
field max 0.000606746672
statistic Basic.rack[1].node[9].app 	hops
field count 124192
field mean 5.1582308039165
field stddev 0.68551751717203
field sum 640611
field sqrsum 3362781
field min 4
field max 6
statistic Basic.rack[1].eps.queue[0] 	dropsum
field count 0
field mean nan
field stddev nan
field sum 0
field sqrsum 0
field min nan
field max nan
statistic Basic.rack[1].eps.queue[1] 	dropsum
field count 0
field mean nan
field stddev nan
field sum 0
field sqrsum 0
field min nan
field max nan
statistic Basic.rack[1].eps.queue[2] 	dropsum
field count 0
field mean nan
field stddev nan
field sum 0
field sqrsum 0
field min nan
field max nan
statistic Basic.rack[1].eps.queue[3] 	dropsum
field count 0
field mean nan
field stddev nan
field sum 0
field sqrsum 0
field min nan
field max nan
statistic Basic.rack[2].node[0].app 	throughput
field count 123999
field mean 62000
field stddev 35795.572351898
field sum 7687938000
field sqrsum 6.35533645354e+014
field min 1
field max 123999
statistic Basic.rack[2].node[0].app 	"End-to-End Delay"
field count 123999
field mean 9.2906862451385e-005
field stddev 0.00010313236429668
field sum 11.520358037109
field sqrsum 0.0023891983330877
field min 8.496e-007
field max 0.000489067264
statistic Basic.rack[2].node[0].app 	hops
field count 123999
field mean 4.9922902604053
field stddev 0.92068665126233
field sum 619039
field sqrsum 3195531
field min 3
field max 6
statistic Basic.rack[2].node[1].app 	throughput
field count 123523
field mean 61762
field stddev 35658.16298783
field sum 7629027526
field sqrsum 6.2824278773857e+014
field min 1
field max 123523
statistic Basic.rack[2].node[1].app 	"End-to-End Delay"
field count 123523
field mean 9.2477478018219e-005
field stddev 0.00010276921332863
field sum 11.423095517244
field sqrsum 0.0023609580520534
field min 8.496e-007
field max 0.000515199924
statistic Basic.rack[2].node[1].app 	hops
field count 123523
field mean 4.9973203371032
field stddev 0.91786399897787
field sum 617284
field sqrsum 3188830
field min 3
field max 6
statistic Basic.rack[2].node[2].app 	throughput
field count 124170
field mean 62085.5
field stddev 35844.935799915
field sum 7709156535
field sqrsum 6.3816654768614e+014
field min 1
field max 124170
statistic Basic.rack[2].node[2].app 	"End-to-End Delay"
field count 124170
field mean 9.2470691918782e-005
field stddev 0.00010259368363746
field sum 11.482085815555
field sqrsum 0.0023686927498038
field min 8.496e-007
field max 0.0004575179
statistic Basic.rack[2].node[2].app 	hops
field count 124170
field mean 5.0020616896191
field stddev 0.91656571724153
field sum 621106
field sqrsum 3211124
field min 3
field max 6
statistic Basic.rack[2].node[3].app 	throughput
field count 124246
field mean 62123.5
field stddev 35866.875110144
field sum 7718596381
field sqrsum 6.3933905683461e+014
field min 1
field max 124246
statistic Basic.rack[2].node[3].app 	"End-to-End Delay"
field count 124246
field mean 9.3085835138092e-005
field stddev 0.0001032089552151
field sum 11.565542672567
field sqrsum 0.0024000569263055
field min 8.496e-007
field max 0.000456662135
statistic Basic.rack[2].node[3].app 	hops
field count 124246
field mean 5.0016821467089
field stddev 0.91829982349356
field sum 621439
field sqrsum 3213013
field min 3
field max 6
statistic Basic.rack[2].node[4].app 	throughput
field count 123901
field mean 61951
field stddev 35767.282188708
field sum 7675790851
field sqrsum 6.3402800008345e+014
field min 1
field max 123901
statistic Basic.rack[2].node[4].app 	"End-to-End Delay"
field count 123901
field mean 9.2596694796204e-005
field stddev 0.00010273666158171
field sum 11.472823081944
field sqrsum 0.0023700878976927
field min 8.496e-007
field max 0.00046764025
statistic Basic.rack[2].node[4].app 	hops
field count 123901
field mean 4.998062969629
field stddev 0.91974807545214
field sum 619265
field sqrsum 3199937
field min 3
field max 6
statistic Basic.rack[2].node[5].app 	throughput
field count 123354
field mean 61677.5
field stddev 35609.376890083
field sum 7608166335
field sqrsum 6.256677027805e+014
field min 1
field max 123354
statistic Basic.rack[2].node[5].app 	"End-to-End Delay"
field count 123354
field mean 9.2739604178342e-005
field stddev 0.00010311461647172
field sum 11.439801133815
field sqrsum 0.0023724887133504
field min 8.496e-007
field max 0.000487038632
statistic Basic.rack[2].node[5].app 	hops
field count 123354
field mean 5.0033237673687
field stddev 0.91262432941861
field sum 617180
field sqrsum 3190690
field min 3
field max 6
statistic Basic.rack[2].node[6].app 	throughput
field count 124019
field mean 62010
field stddev 35801.34585459
field sum 7690418190
field sqrsum 6.3584121247647e+014
field min 1
field max 124019
statistic Basic.rack[2].node[6].app 	"End-to-End Delay"
field count 124019
field mean 9.3337906438063e-005
field stddev 0.0001036490870538
field sum 11.575673818542
field sqrsum 0.0024127910588696
field min 8.496e-007
field max 0.000451424185
statistic Basic.rack[2].node[6].app 	hops
field count 124019
field mean 4.9982905845072
field stddev 0.91292085285324
field sum 619883
field sqrsum 3201715
field min 3
field max 6
statistic Basic.rack[2].node[7].app 	throughput
field count 124341
field mean 62171
field stddev 35894.299247931
field sum 7730404311
field sqrsum 6.4080671175747e+014
field min 1
field max 124341
statistic Basic.rack[2].node[7].app 	"End-to-End Delay"
field count 124341
field mean 9.2842531155596e-005
field stddev 0.0001032139162338
field sum 11.544133166418
field sqrsum 0.0023963945519544
field min 8.496e-007
field max 0.000493315303
statistic Basic.rack[2].node[7].app 	hops
field count 124341
field mean 5.000788155154
field stddev 0.91839249260567
field sum 621803
field sqrsum 3214379
field min 3
field max 6
statistic Basic.rack[2].node[8].app 	throughput
field count 124255
field mean 62128
field stddev 35869.473186355
field sum 7719714640
field sqrsum 6.3947800163368e+014
field min 1
field max 124255
statistic Basic.rack[2].node[8].app 	"End-to-End Delay"
field count 124255
field mean 9.2726246162867e-005
field stddev 0.00010296601403529
field sum 11.521699716967
field sqrsum 0.002385704877925
field min 8.496e-007
field max 0.000495269864
statistic Basic.rack[2].node[8].app 	hops
field count 124255
field mean 4.9980604402237
field stddev 0.9183098787184
field sum 621034
field sqrsum 3208748
field min 3
field max 6
statistic Basic.rack[2].node[9].app 	throughput
field count 123795
field mean 61898
field stddev 35736.682624441
field sum 7662662910
field sqrsum 6.3240212418327e+014
field min 1
field max 123795
statistic Basic.rack[2].node[9].app 	"End-to-End Delay"
field count 123795
field mean 9.2989643476265e-005
field stddev 0.00010322576351409
field sum 11.511652914144
field sqrsum 0.0023895586786889
field min 8.496e-007
field max 0.000440072847
statistic Basic.rack[2].node[9].app 	hops
field count 123795
field mean 5.0009774223515
field stddev 0.91478566717693
field sum 619096
field sqrsum 3199680
field min 3
field max 6
statistic Basic.rack[2].eps.queue[0] 	dropsum
field count 0
field mean nan
field stddev nan
field sum 0
field sqrsum 0
field min nan
field max nan
statistic Basic.rack[2].eps.queue[1] 	dropsum
field count 77
field mean 39
field stddev 22.371857321197
field sum 3003
field sqrsum 155155
field min 1
field max 77
statistic Basic.rack[2].eps.queue[2] 	dropsum
field count 0
field mean nan
field stddev nan
field sum 0
field sqrsum 0
field min nan
field max nan
statistic Basic.rack[2].eps.queue[3] 	dropsum
field count 0
field mean nan
field stddev nan
field sum 0
field sqrsum 0
field min nan
field max nan
statistic Basic.rack[3].node[0].app 	throughput
field count 125096
field mean 62548.5
field stddev 36112.248974552
field sum 7824567156
field sqrsum 6.5255064348704e+014
field min 1
field max 125096
statistic Basic.rack[3].node[0].app 	"End-to-End Delay"
field count 125096
field mean 5.6203469495807e-005
field stddev 6.013828022981e-005
field sum 7.0308292200475
field sqrsum 0.00084757716743522
field min 8.496e-007
field max 0.00079181788
statistic Basic.rack[3].node[0].app 	hops
field count 125096
field mean 5.0005435825286
field stddev 0.91192526144002
field sum 625548
field sqrsum 3232110
field min 3
field max 6
statistic Basic.rack[3].node[1].app 	throughput
field count 124314
field mean 62157.5
field stddev 35886.505019297
field sum 7727047455
field sqrsum 6.4038936056306e+014
field min 1
field max 124314
statistic Basic.rack[3].node[1].app 	"End-to-End Delay"
field count 124314
field mean 5.5878800541536e-005
field stddev 6.0051081573723e-005
field sum 6.9465172105204
field sqrsum 0.00083645218647922
field min 8.496e-007
field max 0.000694470476
statistic Basic.rack[3].node[1].app 	hops
field count 124314
field mean 4.9989140402529
field stddev 0.91243325039483
field sum 621435
field sqrsum 3209995
field min 3
field max 6
statistic Basic.rack[3].node[2].app 	throughput
field count 125060
field mean 62530.5
field stddev 36101.856669706
field sum 7820064330
field sqrsum 6.5198743676131e+014
field min 1
field max 125060
statistic Basic.rack[3].node[2].app 	"End-to-End Delay"
field count 125060
field mean 5.6478353496933e-005
field stddev 6.1106007586817e-005
field sum 7.0631828883264
field sqrsum 0.00086588026308603
field min 8.496e-007
field max 0.000679277367
statistic Basic.rack[3].node[2].app 	hops
field count 125060
field mean 5.0033423956501
field stddev 0.91209438031493
field sum 625718
field sqrsum 3234720
field min 3
field max 6
statistic Basic.rack[3].node[3].app 	throughput
field count 124985
field mean 62493
field stddev 36080.206034611
field sum 7810687605
field sqrsum 6.5081513043648e+014
field min 1
field max 124985
statistic Basic.rack[3].node[3].app 	"End-to-End Delay"
field count 124985
field mean 5.639713208223e-005
field stddev 6.099196955859e-005
field sum 7.0487955532975
field sqrsum 0.00086247487734384
field min 8.496e-007
field max 0.000794108946
statistic Basic.rack[3].node[3].app 	hops
field count 124985
field mean 5.0038404608553
field stddev 0.91367177177143
field sum 625405
field sqrsum 3233763
field min 3
field max 6
statistic Basic.rack[3].node[4].app 	throughput
field count 125611
field mean 62806
field stddev 36260.916668869
field sum 7889124466
field sqrsum 6.6064317190731e+014
field min 1
field max 125611
statistic Basic.rack[3].node[4].app 	"End-to-End Delay"
field count 125611
field mean 5.6678274262417e-005
field stddev 6.081146888388e-005
field sum 7.1194147083765
field sqrsum 0.0008680262841023
field min 8.496e-007
field max 0.000678215848
statistic Basic.rack[3].node[4].app 	hops
field count 125611
field mean 5.0004458208278
field stddev 0.91136520559378
field sum 628111
field sqrsum 3245165
field min 3
field max 6
statistic Basic.rack[3].node[5].app 	throughput
field count 125049
field mean 62525
field stddev 36098.681243225
field sum 7818688725
field sqrsum 6.5181541047792e+014
field min 1
field max 125049
statistic Basic.rack[3].node[5].app 	"End-to-End Delay"
field count 125049
field mean 5.6134242994103e-005
field stddev 6.0611288105222e-005
field sum 7.0195309521696
field sqrsum 0.00085342842585128
field min 8.496e-007
field max 0.000658014382
statistic Basic.rack[3].node[5].app 	hops
field count 125049
field mean 5.0008636614447
field stddev 0.91509873238441
field sum 625353
field sqrsum 3232021
field min 3
field max 6
statistic Basic.rack[3].node[6].app 	throughput
field count 124938
field mean 62469.5
field stddev 36066.638303285
field sum 7804814391
field sqrsum 6.5008120185997e+014
field min 1
field max 124938
statistic Basic.rack[3].node[6].app 	"End-to-End Delay"
field count 124938
field mean 5.6376785888716e-005
field stddev 6.057557484363e-005
field sum 7.0436028753644
field sqrsum 0.00085553955242723
field min 8.496e-007
field max 0.000792382858
statistic Basic.rack[3].node[6].app 	hops
field count 124938
field mean 5.0040500088044
field stddev 0.91245779381515
field sum 625196
field sqrsum 3232532
field min 3
field max 6
statistic Basic.rack[3].node[7].app 	throughput
field count 124960
field mean 62480.5
field stddev 36072.989156246
field sum 7807563280
field sqrsum 6.5042467416696e+014
field min 1
field max 124960
statistic Basic.rack[3].node[7].app 	"End-to-End Delay"
field count 124960
field mean 5.6130568944737e-005
field stddev 6.0524561571374e-005
field sum 7.0140758953344
field sqrsum 0.00085145669767788
field min 8.496e-007
field max 0.000766759364
statistic Basic.rack[3].node[7].app 	hops
field count 124960
field mean 5.0039292573624
field stddev 0.9105210012861
field sum 625291
field sqrsum 3232509
field min 3
field max 6
statistic Basic.rack[3].node[8].app 	throughput
field count 125376
field mean 62688.5
field stddev 36193.078012239
field sum 7859633376
field sqrsum 6.5694221597738e+014
field min 1
field max 125376
statistic Basic.rack[3].node[8].app 	"End-to-End Delay"
field count 125376
field mean 5.6144249902633e-005
field stddev 6.0415967760731e-005
field sum 7.0391414757925
field sqrsum 0.00085283724661027
field min 8.496e-007
field max 0.000817156725
statistic Basic.rack[3].node[8].app 	hops
field count 125376
field mean 5.0040039561001
field stddev 0.91177295985423
field sum 627382
field sqrsum 3243650
field min 3
field max 6
statistic Basic.rack[3].node[9].app 	throughput
field count 125726
field mean 62863.5
field stddev 36294.114309348
field sum 7903576401
field sqrsum 6.6245933225355e+014
field min 1
field max 125726
statistic Basic.rack[3].node[9].app 	"End-to-End Delay"
field count 125726
field mean 5.6223624334881e-005
field stddev 6.0601749606851e-005
field sum 7.0687713931273
field sqrsum 0.00085916606898296
field min 8.496e-007
field max 0.000703425414
statistic Basic.rack[3].node[9].app 	hops
field count 125726
field mean 5.0003579211937
field stddev 0.91422980565642
field sum 628675
field sqrsum 3248683
field min 3
field max 6
statistic Basic.rack[3].eps.queue[0] 	dropsum
field count 48
field mean 24.5
field stddev 14
field sum 1176
field sqrsum 38024
field min 1
field max 48
statistic Basic.rack[3].eps.queue[1] 	dropsum
field count 0
field mean nan
field stddev nan
field sum 0
field sqrsum 0
field min nan
field max nan
statistic Basic.rack[3].eps.queue[2] 	dropsum
field count 0
field mean nan
field stddev nan
field sum 0
field sqrsum 0
field min nan
field max nan
statistic Basic.rack[3].eps.queue[3] 	dropsum
field count 0
field mean nan
field stddev nan
field sum 0
field sqrsum 0
field min nan
field max nan
statistic Basic.rack[4].node[0].app 	throughput
field count 123527
field mean 61764
field stddev 35659.317688369
field sum 7629521628
field sqrsum 6.2830382193518e+014
field min 1
field max 123527
statistic Basic.rack[4].node[0].app 	"End-to-End Delay"
field count 123527
field mean 9.1901354468809e-005
field stddev 0.00012468878958507
field sum 11.352298613469
field sqrsum 0.0029637866882139
field min 8.496e-007
field max 0.000527105082
statistic Basic.rack[4].node[0].app 	hops
field count 123527
field mean 5.1677366081909
field stddev 0.68996344554831
field sum 638355
field sqrsum 3357655
field min 4
field max 6
statistic Basic.rack[4].node[1].app 	throughput
field count 123554
field mean 61777.5
field stddev 35667.111917003
field sum 7632857235
field sqrsum 6.287159061612e+014
field min 1
field max 123554
statistic Basic.rack[4].node[1].app 	"End-to-End Delay"
field count 123554
field mean 9.2062124877929e-005
field stddev 0.00012488561901343
field sum 11.374643777168
field sqrsum 0.0029741580887924
field min 8.496e-007
field max 0.000572194736
statistic Basic.rack[4].node[1].app 	hops
field count 123554
field mean 5.1686954691876
field stddev 0.68977296997273
field sum 638613
field sqrsum 3359581
field min 4
field max 6
statistic Basic.rack[4].node[2].app 	throughput
field count 122951
field mean 61476
field stddev 35493.040810841
field sum 7558535676
field sqrsum 6.1955553277848e+014
field min 1
field max 122951
statistic Basic.rack[4].node[2].app 	"End-to-End Delay"
field count 122951
field mean 9.1964934842533e-005
field stddev 0.0001245472377089
field sum 11.307180703824
field sqrsum 0.0029470663097319
field min 8.496e-007
field max 0.000581628084
statistic Basic.rack[4].node[2].app 	hops
field count 122951
field mean 5.1695634846402
field stddev 0.69010870460691
field sum 635603
field sqrsum 3344345
field min 4
field max 6
statistic Basic.rack[4].node[3].app 	throughput
field count 124017
field mean 62009
field stddev 35800.768504321
field sum 7690170153
field sqrsum 6.3581045129978e+014
field min 1
field max 124017
statistic Basic.rack[4].node[3].app 	"End-to-End Delay"
field count 124017
field mean 9.1871609762571e-005
field stddev 0.00012447414174888
field sum 11.393641427925
field sqrsum 0.0029682327635834
field min 8.496e-007
field max 0.000506607336
statistic Basic.rack[4].node[3].app 	hops
field count 124017
field mean 5.1700895844924
field stddev 0.69061974864166
field sum 641179
field sqrsum 3374103
field min 4
field max 6
statistic Basic.rack[4].node[4].app 	throughput
field count 123626
field mean 61813.5
field stddev 35687.896526694
field sum 7641755751
field sqrsum 6.29815678234e+014
field min 1
field max 123626
statistic Basic.rack[4].node[4].app 	"End-to-End Delay"
field count 123626
field mean 9.1305582266431e-005
field stddev 0.00012393838544433
field sum 11.28774391327
field sqrsum 0.0029296034591374
field min 8.496e-007
field max 0.00054500679
statistic Basic.rack[4].node[4].app 	hops
field count 123626
field mean 5.1676508177891
field stddev 0.69278102911478
field sum 638856
field sqrsum 3360718
field min 4
field max 6
statistic Basic.rack[4].node[5].app 	throughput
field count 123687
field mean 61844
field stddev 35705.505709904
field sum 7649298828
field sqrsum 6.307484325255e+014
field min 1
field max 123687
statistic Basic.rack[4].node[5].app 	"End-to-End Delay"
field count 123687
field mean 9.2180561224069e-005
field stddev 0.00012483774026432
field sum 11.401537076121
field sqrsum 0.0029785797785095
field min 8.496e-007
field max 0.000511822744
statistic Basic.rack[4].node[5].app 	hops
field count 123687
field mean 5.1696297913281
field stddev 0.69160980469854
field sum 639416
field sqrsum 3364706
field min 4
field max 6
statistic Basic.rack[4].node[6].app 	throughput
field count 123758
field mean 61879.5
field stddev 35726.001644461
field sum 7658083161
field sqrsum 6.3183525658708e+014
field min 1
field max 123758
statistic Basic.rack[4].node[6].app 	"End-to-End Delay"
field count 123758
field mean 9.0982753274443e-005
field stddev 0.00012373575038027
field sum 11.259843579739
field sqrsum 0.0029192375644439
field min 8.496e-007
field max 0.000538202257
statistic Basic.rack[4].node[6].app 	hops
field count 123758
field mean 5.1683689135248
field stddev 0.69238478921729
field sum 639627
field sqrsum 3365157
field min 4
field max 6
statistic Basic.rack[4].node[7].app 	throughput
field count 123949
field mean 61975
field stddev 35781.138595169
field sum 7681739275
field sqrsum 6.3476516151108e+014
field min 1
field max 123949
statistic Basic.rack[4].node[7].app 	"End-to-End Delay"
field count 123949
field mean 9.1842842579202e-005
field stddev 0.00012454308841715
field sum 11.38382849485
field sqrsum 0.0029680782255837
field min 8.496e-007
field max 0.00052346918
statistic Basic.rack[4].node[7].app 	hops
field count 123949
field mean 5.1678512936772
field stddev 0.6901707554608
field sum 640550
field sqrsum 3369308
field min 4
field max 6
statistic Basic.rack[4].node[8].app 	throughput
field count 123340
field mean 61670.5
field stddev 35605.335438199
field sum 7606439470
field sqrsum 6.2545469829969e+014
field min 1
field max 123340
statistic Basic.rack[4].node[8].app 	"End-to-End Delay"
field count 123340
field mean 9.2217672341484e-005
field stddev 0.00012466280303419
field sum 11.374127706599
field sqrsum 0.0029656840967412
field min 8.496e-007
field max 0.000514029879
statistic Basic.rack[4].node[8].app 	hops
field count 123340
field mean 5.1691989622183
field stddev 0.69088240904608
field sum 637569
field sqrsum 3354593
field min 4
field max 6
statistic Basic.rack[4].node[9].app 	throughput
field count 123465
field mean 61733
field stddev 35641.419830024
field sum 7621864845
field sqrsum 6.2735823601356e+014
field min 1
field max 123465
statistic Basic.rack[4].node[9].app 	"End-to-End Delay"
field count 123465
field mean 9.1060010849121e-005
field stddev 0.00012381253060371
field sum 11.242724239487
field sqrsum 0.0029164092553931
field min 8.496e-007
field max 0.000538584786
statistic Basic.rack[4].node[9].app 	hops
field count 123465
field mean 5.1695217268052
field stddev 0.69158697269769
field sum 638255
field sqrsum 3358525
field min 4
field max 6
statistic Basic.rack[4].eps.queue[0] 	dropsum
field count 0
field mean nan
field stddev nan
field sum 0
field sqrsum 0
field min nan
field max nan
statistic Basic.rack[4].eps.queue[1] 	dropsum
field count 0
field mean nan
field stddev nan
field sum 0
field sqrsum 0
field min nan
field max nan
statistic Basic.rack[4].eps.queue[2] 	dropsum
field count 0
field mean nan
field stddev nan
field sum 0
field sqrsum 0
field min nan
field max nan
statistic Basic.rack[4].eps.queue[3] 	dropsum
field count 0
field mean nan
field stddev nan
field sum 0
field sqrsum 0
field min nan
field max nan
statistic Basic.rack[5].node[0].app 	throughput
field count 122916
field mean 61458.5
field stddev 35482.93718113
field sum 7554232986
field sqrsum 6.1902658588245e+014
field min 1
field max 122916
statistic Basic.rack[5].node[0].app 	"End-to-End Delay"
field count 122916
field mean 0.00012273487905799
field stddev 0.00016027898761284
field sum 15.086080394291
field sqrsum 0.0050091951836075
field min 8.496e-007
field max 0.000853372657
statistic Basic.rack[5].node[0].app 	hops
field count 122916
field mean 5.1784714764555
field stddev 0.68173246396993
field sum 636517
field sqrsum 3353311
field min 4
field max 6
statistic Basic.rack[5].node[1].app 	throughput
field count 123083
field mean 61542
field stddev 35531.145928607
field sum 7574773986
field sqrsum 6.2155312927055e+014
field min 1
field max 123083
statistic Basic.rack[5].node[1].app 	"End-to-End Delay"
field count 123083
field mean 0.00012300376277065
field stddev 0.00016035955607985
field sum 15.1396721331
field sqrsum 0.0050273133136516
field min 8.496e-007
field max 0.000835891064
statistic Basic.rack[5].node[1].app 	hops
field count 123083
field mean 5.1772381238676
field stddev 0.68355976124131
field sum 637230
field sqrsum 3356602
field min 4
field max 6
statistic Basic.rack[5].node[2].app 	throughput
field count 122895
field mean 61448
field stddev 35476.875003303
field sum 7551651960
field sqrsum 6.1870936230012e+014
field min 1
field max 122895
statistic Basic.rack[5].node[2].app 	"End-to-End Delay"
field count 122895
field mean 0.00012301095144071
field stddev 0.00016004010043979
field sum 15.117430877307
field sqrsum 0.0050072731462791
field min 8.496e-007
field max 0.000833011335
statistic Basic.rack[5].node[2].app 	hops
field count 122895
field mean 5.1762073314618
field stddev 0.68281251773523
field sum 636130
field sqrsum 3350038
field min 4
field max 6
statistic Basic.rack[5].node[3].app 	throughput
field count 122752
field mean 61376.5
field stddev 35435.594459056
field sum 7534088128
field sqrsum 6.1655210195488e+014
field min 1
field max 122752
statistic Basic.rack[5].node[3].app 	"End-to-End Delay"
field count 122752
field mean 0.000123208467833
field stddev 0.00016023791622867
field sum 15.124085843436
field sqrsum 0.0050151934179536
field min 8.496e-007
field max 0.000837953396
statistic Basic.rack[5].node[3].app 	hops
field count 122752
field mean 5.1770072992701
field stddev 0.68165081010258
field sum 635488
field sqrsum 3346962
field min 4
field max 6
statistic Basic.rack[5].node[4].app 	throughput
field count 122527
field mean 61264
field stddev 35370.642553771
field sum 7506494128
field sqrsum 6.1316797284568e+014
field min 1
field max 122527
statistic Basic.rack[5].node[4].app 	"End-to-End Delay"
field count 122527
field mean 0.00012363987415393
field stddev 0.00016058972474607
field sum 15.149222860459
field sqrsum 0.0050328783360663
field min 8.496e-007
field max 0.000841504387
statistic Basic.rack[5].node[4].app 	hops
field count 122527
field mean 5.1775200568038
field stddev 0.6807061990843
field sum 634386
field sqrsum 3341320
field min 4
field max 6
statistic Basic.rack[5].node[5].app 	throughput
field count 123592
field mean 61796.5
field stddev 35678.081572117
field sum 7637553028
field sqrsum 6.2929618174206e+014
field min 1
field max 123592
statistic Basic.rack[5].node[5].app 	"End-to-End Delay"
field count 123592
field mean 0.000122737851098
field stddev 0.00016011656153292
field sum 15.169416492904
field sqrsum 0.0050304027679826
field min 8.496e-007
field max 0.000847272778
statistic Basic.rack[5].node[5].app 	hops
field count 123592
field mean 5.1780212311476
field stddev 0.68200021704052
field sum 639962
field sqrsum 3371222
field min 4
field max 6
statistic Basic.rack[5].node[6].app 	throughput
field count 123194
field mean 61597.5
field stddev 35563.188868548
field sum 7588442415
field sqrsum 6.2323624606314e+014
field min 1
field max 123194
statistic Basic.rack[5].node[6].app 	"End-to-End Delay"
field count 123194
field mean 0.00012330817236228
field stddev 0.00016084547626355
field sum 15.190826985999
field sqrsum 0.0050603121367285
field min 8.496e-007
field max 0.000836958198
statistic Basic.rack[5].node[6].app 	hops
field count 123194
field mean 5.1755280289624
field stddev 0.68231153589883
field sum 637594
field sqrsum 3357238
field min 4
field max 6
statistic Basic.rack[5].node[7].app 	throughput
field count 122722
field mean 61361.5
field stddev 35426.934205018
field sum 7530406003
field sqrsum 6.1610016713544e+014
field min 1
field max 122722
statistic Basic.rack[5].node[7].app 	"End-to-End Delay"
field count 122722
field mean 0.00012248776901378
field stddev 0.00016064826181772
field sum 15.03194398891
field sqrsum 0.0050083961641605
field min 8.496e-007
field max 0.000830844657
statistic Basic.rack[5].node[7].app 	hops
field count 122722
field mean 5.1756816218771
field stddev 0.68056365804041
field sum 635170
field sqrsum 3344278
field min 4
field max 6
statistic Basic.rack[5].node[8].app 	throughput
field count 123339
field mean 61670
field stddev 35605.046763064
field sum 7606316130
field sqrsum 6.2543948554409e+014
field min 1
field max 123339
statistic Basic.rack[5].node[8].app 	"End-to-End Delay"
field count 123339
field mean 0.00012330003535476
field stddev 0.00016050963954338
field sum 15.20770306062
field sqrsum 0.0050527096949623
field min 8.496e-007
field max 0.000834726657
statistic Basic.rack[5].node[8].app 	hops
field count 123339
field mean 5.1778837188562
field stddev 0.68293714637159
field sum 638635
field sqrsum 3364303
field min 4
field max 6
statistic Basic.rack[5].node[9].app 	throughput
field count 122667
field mean 61334
field stddev 35411.057072615
field sum 7523657778
field sqrsum 6.1527219365521e+014
field min 1
field max 122667
statistic Basic.rack[5].node[9].app 	"End-to-End Delay"
field count 122667
field mean 0.00012339640183373
field stddev 0.00016068151738473
field sum 15.136666423738
field sqrsum 0.0050348684303112
field min 8.496e-007
field max 0.000837808739
statistic Basic.rack[5].node[9].app 	hops
field count 122667
field mean 5.1769587582642
field stddev 0.68189752567413
field sum 635042
field sqrsum 3344624
field min 4
field max 6
statistic Basic.rack[5].eps.queue[0] 	dropsum
field count 0
field mean nan
field stddev nan
field sum 0
field sqrsum 0
field min nan
field max nan
statistic Basic.rack[5].eps.queue[1] 	dropsum
field count 0
field mean nan
field stddev nan
field sum 0
field sqrsum 0
field min nan
field max nan
statistic Basic.rack[5].eps.queue[2] 	dropsum
field count 0
field mean nan
field stddev nan
field sum 0
field sqrsum 0
field min nan
field max nan
statistic Basic.rack[5].eps.queue[3] 	dropsum
field count 0
field mean nan
field stddev nan
field sum 0
field sqrsum 0
field min nan
field max nan
statistic Basic.rack[6].node[0].app 	throughput
field count 119168
field mean 59584.5
field stddev 34400.982776659
field sum 7100565696
field sqrsum 5.6410917542918e+014
field min 1
field max 119168
statistic Basic.rack[6].node[0].app 	"End-to-End Delay"
field count 119168
field mean 0.00021830742524715
field stddev 0.00020650235430463
field sum 26.015259251852
field sqrsum 0.010760989140208
field min 8.496e-007
field max 0.000907385381
statistic Basic.rack[6].node[0].app 	hops
field count 119168
field mean 5.0111942803437
field stddev 0.89986850745214
field sum 597174
field sqrsum 3089052
field min 3
field max 6
statistic Basic.rack[6].node[1].app 	throughput
field count 119317
field mean 59659
field stddev 34443.995371714
field sum 7118332903
field sqrsum 5.6622779076914e+014
field min 1
field max 119317
statistic Basic.rack[6].node[1].app 	"End-to-End Delay"
field count 119317
field mean 0.00021733410940687
field stddev 0.00020648617930752
field sum 25.931653932099
field sqrsum 0.010723054587286
field min 8.496e-007
field max 0.000887295433
statistic Basic.rack[6].node[1].app 	hops
field count 119317
field mean 5.0062271092971
field stddev 0.90401589522875
field sum 597328
field sqrsum 3087870
field min 3
field max 6
statistic Basic.rack[6].node[2].app 	throughput
field count 119082
field mean 59541.5
field stddev 34376.156715084
field sum 7090320903
field sqrsum 5.6288875928766e+014
field min 1
field max 119082
statistic Basic.rack[6].node[2].app 	"End-to-End Delay"
field count 119082
field mean 0.00021848155750549
field stddev 0.000206633719006
field sum 26.017220830869
field sqrsum 0.010768743191893
field min 8.496e-007
field max 0.000867939519
statistic Basic.rack[6].node[2].app 	hops
field count 119082
field mean 5.0125459767219
field stddev 0.89911149321778
field sum 596904
field sqrsum 3088274
field min 3
field max 6
statistic Basic.rack[6].node[3].app 	throughput
field count 119069
field mean 59535
field stddev 34372.403938334
field sum 7088772915
field sqrsum 5.627044310684e+014
field min 1
field max 119069
statistic Basic.rack[6].node[3].app 	"End-to-End Delay"
field count 119069
field mean 0.0002180152749655
field stddev 0.00020640243275379
field sum 25.958860774867
field sqrsum 0.010731958848548
field min 8.496e-007
field max 0.000863679832
statistic Basic.rack[6].node[3].app 	hops
field count 119069
field mean 5.0091039649279
field stddev 0.90274425170092
field sum 596429
field sqrsum 3084609
field min 3
field max 6
statistic Basic.rack[6].node[4].app 	throughput
field count 118766
field mean 59383.5
field stddev 34284.935372551
field sum 7052740761
field sqrsum 5.5841955706087e+014
field min 1
field max 118766
statistic Basic.rack[6].node[4].app 	"End-to-End Delay"
field count 118766
field mean 0.00021789454186851
field stddev 0.00020642367958394
field sum 25.878463159555
field sqrsum 0.010699439875235
field min 8.496e-007
field max 0.000844558183
statistic Basic.rack[6].node[4].app 	hops
field count 118766
field mean 5.0087567148847
field stddev 0.89961279843328
field sum 594870
field sqrsum 3075676
field min 3
field max 6
statistic Basic.rack[6].node[5].app 	throughput
field count 119544
field mean 59772.5
field stddev 34509.524627268
field sum 7145443740
field sqrsum 5.6946566611762e+014
field min 1
field max 119544
statistic Basic.rack[6].node[5].app 	"End-to-End Delay"
field count 119544
field mean 0.00021789126663173
field stddev 0.00020658648672042
field sum 26.047593578224
field sqrsum 0.010777396501667
field min 8.496e-007
field max 0.000856710354
statistic Basic.rack[6].node[5].app 	hops
field count 119544
field mean 5.0130244930737
field stddev 0.89984611782436
field sum 599277
field sqrsum 3100987
field min 3
field max 6
statistic Basic.rack[6].node[6].app 	throughput
field count 119679
field mean 59840
field stddev 34548.495770438
field sum 7161591360
field sqrsum 5.7139711544608e+014
field min 1
field max 119679
statistic Basic.rack[6].node[6].app 	"End-to-End Delay"
field count 119679
field mean 0.00021780330734493
field stddev 0.00020696937892765
field sum 26.066482019734
field sqrsum 0.010803931556121
field min 8.496e-007
field max 0.000873802426
statistic Basic.rack[6].node[6].app 	hops
field count 119679
field mean 5.0066427694082
field stddev 0.90131061601271
field sum 599190
field sqrsum 3097152
field min 3
field max 6
statistic Basic.rack[6].node[7].app 	throughput
field count 119240
field mean 59620.5
field stddev 34421.76738635
field sum 7109148420
field sqrsum 5.6513227478334e+014
field min 1
field max 119240
statistic Basic.rack[6].node[7].app 	"End-to-End Delay"
field count 119240
field mean 0.00021881796485027
field stddev 0.00020694216665923
field sum 26.091854128747
field sqrsum 0.010815783789696
field min 8.496e-007
field max 0.000873535667
statistic Basic.rack[6].node[7].app 	hops
field count 119240
field mean 5.0167225763167
field stddev 0.89967876318516
field sum 598194
field sqrsum 3097488
field min 3
field max 6
statistic Basic.rack[6].node[8].app 	throughput
field count 118796
field mean 59398.5
field stddev 34293.595626589
field sum 7056304206
field sqrsum 5.5884282840539e+014
field min 1
field max 118796
statistic Basic.rack[6].node[8].app 	"End-to-End Delay"
field count 118796
field mean 0.0002169780038759
field stddev 0.0002064947642461
field sum 25.776118948441
field sqrsum 0.010658280050795
field min 8.496e-007
field max 0.000872504951
statistic Basic.rack[6].node[8].app 	hops
field count 118796
field mean 5.0087797568942
field stddev 0.90151344104998
field sum 595023
field sqrsum 3076887
field min 3
field max 6
statistic Basic.rack[6].node[9].app 	throughput
field count 119543
field mean 59772
field stddev 34509.235952133
field sum 7145324196
field sqrsum 5.6945137534968e+014
field min 1
field max 119543
statistic Basic.rack[6].node[9].app 	"End-to-End Delay"
field count 119543
field mean 0.00021775589344238
field stddev 0.00020656518346626
field sum 26.031192769782
field sqrsum 0.010769204159249
field min 8.496e-007
field max 0.000847116124
statistic Basic.rack[6].node[9].app 	hops
field count 119543
field mean 5.0099629422049
field stddev 0.90296068083358
field sum 598906
field sqrsum 3097964
field min 3
field max 6
statistic Basic.rack[6].eps.queue[0] 	dropsum
field count 0
field mean nan
field stddev nan
field sum 0
field sqrsum 0
field min nan
field max nan
statistic Basic.rack[6].eps.queue[1] 	dropsum
field count 133408
field mean 66704.5
field stddev 38511.716693322
field sum 8898913936
field sqrsum 7.914605065539e+014
field min 1
field max 133408
statistic Basic.rack[6].eps.queue[2] 	dropsum
field count 0
field mean nan
field stddev nan
field sum 0
field sqrsum 0
field min nan
field max nan
statistic Basic.rack[6].eps.queue[3] 	dropsum
field count 0
field mean nan
field stddev nan
field sum 0
field sqrsum 0
field min nan
field max nan
statistic Basic.rack[7].node[0].app 	throughput
field count 118415
field mean 59208
field stddev 34183.610400307
field sum 7011115320
field sqrsum 5.5348315078364e+014
field min 1
field max 118415
statistic Basic.rack[7].node[0].app 	"End-to-End Delay"
field count 118415
field mean 0.00021869604321031
field stddev 0.000176884295006
field sum 25.896891956749
field sqrsum 0.0093684914074
field min 8.496e-007
field max 0.000599368033
statistic Basic.rack[7].node[0].app 	hops
field count 118415
field mean 5.0057340708525
field stddev 0.90560205147296
field sum 592754
field sqrsum 3064282
field min 3
field max 6
statistic Basic.rack[7].node[1].app 	throughput
field count 118752
field mean 59376.5
field stddev 34280.893920667
field sum 7051078128
field sqrsum 5.5822210359688e+014
field min 1
field max 118752
statistic Basic.rack[7].node[1].app 	"End-to-End Delay"
field count 118752
field mean 0.00021753641887118
field stddev 0.00017700176133598
field sum 25.832884813791
field sqrsum 0.0093400173736572
field min 8.496e-007
field max 0.000561454609
statistic Basic.rack[7].node[1].app 	hops
field count 118752
field mean 5.0089682700081
field stddev 0.90164124426051
field sum 594825
field sqrsum 3075999
field min 3
field max 6
statistic Basic.rack[7].node[2].app 	throughput
field count 119546
field mean 59773.5
field stddev 34510.101977537
field sum 7145682831
field sqrsum 5.6949424837076e+014
field min 1
field max 119546
statistic Basic.rack[7].node[2].app 	"End-to-End Delay"
field count 119546
field mean 0.00021842707835685
field stddev 0.00017710346691524
field sum 26.112083509248
field sqrsum 0.0094531913046557
field min 8.496e-007
field max 0.000569787323
statistic Basic.rack[7].node[2].app 	hops
field count 119546
field mean 5.0109079350208
field stddev 0.89960176360285
field sum 599034
field sqrsum 3098450
field min 3
field max 6
statistic Basic.rack[7].node[3].app 	throughput
field count 118979
field mean 59490
field stddev 34346.42317622
field sum 7078060710
field sqrsum 5.6142941616363e+014
field min 1
field max 118979
statistic Basic.rack[7].node[3].app 	"End-to-End Delay"
field count 118979
field mean 0.00021889214438309
field stddev 0.00017675804091346
field sum 26.043568446556
field sqrsum 0.009418010388024
field min 8.496e-007
field max 0.000576489703
statistic Basic.rack[7].node[3].app 	hops
field count 118979
field mean 5.0111784432547
field stddev 0.90224296417752
field sum 596225
field sqrsum 3084643
field min 3
field max 6
statistic Basic.rack[7].node[4].app 	throughput
field count 118844
field mean 59422.5
field stddev 34307.45203305
field sum 7062007590
field sqrsum 5.5952050735317e+014
field min 1
field max 118844
statistic Basic.rack[7].node[4].app 	"End-to-End Delay"
field count 118844
field mean 0.00021755962112254
field stddev 0.00017697133886559
field sum 25.855655612687
field sqrsum 0.009347173297576
field min 8.496e-007
field max 0.000607849071
statistic Basic.rack[7].node[4].app 	hops
field count 118844
field mean 5.0140267914241
field stddev 0.89915248584789
field sum 595887
field sqrsum 3083875
field min 3
field max 6
statistic Basic.rack[7].node[5].app 	throughput
field count 119116
field mean 59558.5
field stddev 34385.97166966
field sum 7094370286
field sqrsum 5.6337103878155e+014
field min 1
field max 119116
statistic Basic.rack[7].node[5].app 	"End-to-End Delay"
field count 119116
field mean 0.00021836060980361
field stddev 0.00017687822065537
field sum 26.010242397367
field sqrsum 0.0094062329582202
field min 8.496e-007
field max 0.000631257102
statistic Basic.rack[7].node[5].app 	hops
field count 119116
field mean 5.0079166526747
field stddev 0.9031212793071
field sum 596523
field sqrsum 3084491
field min 3
field max 6
statistic Basic.rack[7].node[6].app 	throughput
field count 119356
field mean 59678.5
field stddev 34455.253701963
field sum 7122987046
field sqrsum 5.6678320223727e+014
field min 1
field max 119356
statistic Basic.rack[7].node[6].app 	"End-to-End Delay"
field count 119356
field mean 0.00021746579879945
field stddev 0.00017662500375229
field sum 25.955847881507
field sqrsum 0.0093679545543204
field min 8.496e-007
field max 0.000609992404
statistic Basic.rack[7].node[6].app 	hops
field count 119356
field mean 5.008604510875
field stddev 0.90106348557124
field sum 597807
field sqrsum 3091085
field min 3
field max 6
statistic Basic.rack[7].node[7].app 	throughput
field count 118796
field mean 59398.5
field stddev 34293.595626589
field sum 7056304206
field sqrsum 5.5884282840539e+014
field min 1
field max 118796
statistic Basic.rack[7].node[7].app 	"End-to-End Delay"
field count 118796
field mean 0.00021888961389758
field stddev 0.00017694575913731
field sum 26.003210572577
field sqrsum 0.0094112806125101
field min 8.496e-007
field max 0.000586891427
statistic Basic.rack[7].node[7].app 	hops
field count 118796
field mean 5.0093437489478
field stddev 0.90286536141416
field sum 595090
field sqrsum 3077848
field min 3
field max 6
statistic Basic.rack[7].node[8].app 	throughput
field count 119083
field mean 59542
field stddev 34376.445390218
field sum 7090439986
field sqrsum 5.6290294004855e+014
field min 1
field max 119083
statistic Basic.rack[7].node[8].app 	"End-to-End Delay"
field count 119083
field mean 0.00021770123394644
field stddev 0.00017672272117783
field sum 25.924516042044
field sqrsum 0.0093628395687513
field min 8.496e-007
field max 0.000549644712
statistic Basic.rack[7].node[8].app 	hops
field count 119083
field mean 5.0084814793044
field stddev 0.90114234220657
field sum 596425
field sqrsum 3083885
field min 3
field max 6
statistic Basic.rack[7].node[9].app 	throughput
field count 118719
field mean 59360
field stddev 34271.367641225
field sum 7047159840
field sqrsum 5.5775686174992e+014
field min 1
field max 118719
statistic Basic.rack[7].node[9].app 	"End-to-End Delay"
field count 118719
field mean 0.00021806789260476
field stddev 0.00017682525545308
field sum 25.888802142145
field sqrsum 0.0093574925279464
field min 8.496e-007
field max 0.000577188335
statistic Basic.rack[7].node[9].app 	hops
field count 118719
field mean 5.0096277765143
field stddev 0.9015262073922
field sum 594738
field sqrsum 3075904
field min 3
field max 6
statistic Basic.rack[7].eps.queue[0] 	dropsum
field count 132942
field mean 66471.5
field stddev 38377.194080599
field sum 8836854153
field sqrsum 7.8319565549014e+014
field min 1
field max 132942
statistic Basic.rack[7].eps.queue[1] 	dropsum
field count 0
field mean nan
field stddev nan
field sum 0
field sqrsum 0
field min nan
field max nan
statistic Basic.rack[7].eps.queue[2] 	dropsum
field count 0
field mean nan
field stddev nan
field sum 0
field sqrsum 0
field min nan
field max nan
statistic Basic.rack[7].eps.queue[3] 	dropsum
field count 0
field mean nan
field stddev nan
field sum 0
field sqrsum 0
field min nan
field max nan
statistic Basic.rack[8].node[0].app 	throughput
field count 121602
field mean 60801.5
field stddev 35103.618054269
field sum 7393584003
field sqrsum 5.993855324832e+014
field min 1
field max 121602
statistic Basic.rack[8].node[0].app 	"End-to-End Delay"
field count 121602
field mean 0.00015328486420469
field stddev 0.00017730296612703
field sum 18.639746057019
field sqrsum 0.0066798815420708
field min 8.496e-007
field max 0.000770305673
statistic Basic.rack[8].node[0].app 	hops
field count 121602
field mean 5.1757619118107
field stddev 0.68248755814283
field sum 629383
field sqrsum 3314177
field min 4
field max 6
statistic Basic.rack[8].node[1].app 	throughput
field count 121674
field mean 60837.5
field stddev 35124.40266396
field sum 7402341975
field sqrsum 6.0045083909142e+014
field min 1
field max 121674
statistic Basic.rack[8].node[1].app 	"End-to-End Delay"
field count 121674
field mean 0.00015339115341424
field stddev 0.00017777624653519
field sum 18.663715200524
field sqrsum 0.0067082502123414
field min 8.496e-007
field max 0.00077110467
statistic Basic.rack[8].node[1].app 	hops
field count 121674
field mean 5.1718526554564
field stddev 0.68642957594567
field sum 629280
field sqrsum 3311874
field min 4
field max 6
statistic Basic.rack[8].node[2].app 	throughput
field count 122395
field mean 61198
field stddev 35332.537436005
field sum 7490329210
field sqrsum 6.1118839254837e+014
field min 1
field max 122395
statistic Basic.rack[8].node[2].app 	"End-to-End Delay"
field count 122395
field mean 0.00015328577519813
field stddev 0.00017753538461887
field sum 18.761412455375
field sqrsum 0.0067335712248699
field min 8.496e-007
field max 0.00075985504
statistic Basic.rack[8].node[2].app 	hops
field count 122395
field mean 5.1694513664774
field stddev 0.68242630436726
field sum 632715
field sqrsum 3327789
field min 4
field max 6
statistic Basic.rack[8].node[3].app 	throughput
field count 121704
field mean 60852.5
field stddev 35133.062917998
field sum 7405992660
field sqrsum 6.0089508912598e+014
field min 1
field max 121704
statistic Basic.rack[8].node[3].app 	"End-to-End Delay"
field count 121704
field mean 0.00015322306882411
field stddev 0.00017757178535628
field sum 18.64786036817
field sqrsum 0.0066947896186083
field min 8.496e-007
field max 0.00077565189
statistic Basic.rack[8].node[3].app 	hops
field count 121704
field mean 5.170561361993
field stddev 0.68481643101153
field sum 629278
field sqrsum 3310796
field min 4
field max 6
statistic Basic.rack[8].node[4].app 	throughput
field count 121989
field mean 60995
field stddev 35215.335331358
field sum 7440719055
field sqrsum 6.0512639810662e+014
field min 1
field max 121989
statistic Basic.rack[8].node[4].app 	"End-to-End Delay"
field count 121989
field mean 0.0001524054692848
field stddev 0.00017724366539609
field sum 18.591790792583
field sqrsum 0.0066657822813965
field min 8.496e-007
field max 0.000774091618
statistic Basic.rack[8].node[4].app 	hops
field count 121989
field mean 5.1707203108477
field stddev 0.68446581257755
field sum 630771
field sqrsum 3318691
field min 4
field max 6
statistic Basic.rack[8].node[5].app 	throughput
field count 121693
field mean 60847
field stddev 35129.887491517
field sum 7404653971
field sqrsum 6.0073217201326e+014
field min 1
field max 121693
statistic Basic.rack[8].node[5].app 	"End-to-End Delay"
field count 121693
field mean 0.00015384619010357
field stddev 0.00017784057245004
field sum 18.722004412273
field sqrsum 0.0067290946945554
field min 8.496e-007
field max 0.000761290121
statistic Basic.rack[8].node[5].app 	hops
field count 121693
field mean 5.168711429581
field stddev 0.68482157338869
field sum 628996
field sqrsum 3308170
field min 4
field max 6
statistic Basic.rack[8].node[6].app 	throughput
field count 121720
field mean 60860.5
field stddev 35137.681720151
field sum 7407940060
field sqrsum 6.0113211204882e+014
field min 1
field max 121720
statistic Basic.rack[8].node[6].app 	"End-to-End Delay"
field count 121720
field mean 0.0001530008858516
field stddev 0.00017734854966793
field sum 18.623267825856
field sqrsum 0.006677744304497
field min 8.496e-007
field max 0.000725882773
statistic Basic.rack[8].node[6].app 	hops
field count 121720
field mean 5.1725188958265
field stddev 0.68356332188701
field sum 629599
field sqrsum 3313487
field min 4
field max 6
statistic Basic.rack[8].node[7].app 	throughput
field count 121378
field mean 60689.5
field stddev 35038.954824119
field sum 7366370131
field sqrsum 5.9607930463039e+014
field min 1
field max 121378
statistic Basic.rack[8].node[7].app 	"End-to-End Delay"
field count 121378
field mean 0.00015363286299287
field stddev 0.00017764845498787
field sum 18.647649644348
field sqrsum 0.0066954253366898
field min 8.496e-007
field max 0.000789724692
statistic Basic.rack[8].node[7].app 	hops
field count 121378
field mean 5.1695694442156
field stddev 0.68321037857371
field sum 627472
field sqrsum 3300416
field min 4
field max 6
statistic Basic.rack[8].node[8].app 	throughput
field count 121714
field mean 60857.5
field stddev 35135.949669344
field sum 7407209755
field sqrsum 6.0104322114996e+014
field min 1
field max 121714
statistic Basic.rack[8].node[8].app 	"End-to-End Delay"
field count 121714
field mean 0.00015292480182162
field stddev 0.00017722227079887
field sum 18.613089328917
field sqrsum 0.0066691324360522
field min 8.496e-007
field max 0.00077092564
statistic Basic.rack[8].node[8].app 	hops
field count 121714
field mean 5.1757069852277
field stddev 0.68325590519062
field sum 629956
field sqrsum 3317288
field min 4
field max 6
statistic Basic.rack[8].node[9].app 	throughput
field count 121998
field mean 60999.5
field stddev 35217.93340757
field sum 7441817001
field sqrsum 6.05260340931e+014
field min 1
field max 121998
statistic Basic.rack[8].node[9].app 	"End-to-End Delay"
field count 121998
field mean 0.00015321004879169
field stddev 0.00017737674906029
field sum 18.691319532488
field sqrsum 0.0067020299450982
field min 8.496e-007
field max 0.000734247693
statistic Basic.rack[8].node[9].app 	hops
field count 121998
field mean 5.1720847882752
field stddev 0.68406125561176
field sum 630984
field sqrsum 3320590
field min 4
field max 6
statistic Basic.rack[8].eps.queue[0] 	dropsum
field count 213
field mean 107
field stddev 61.631972222216
field sum 22791
field sqrsum 3243919
field min 1
field max 213
statistic Basic.rack[8].eps.queue[1] 	dropsum
field count 0
field mean nan
field stddev nan
field sum 0
field sqrsum 0
field min nan
field max nan
statistic Basic.rack[8].eps.queue[2] 	dropsum
field count 0
field mean nan
field stddev nan
field sum 0
field sqrsum 0
field min nan
field max nan
statistic Basic.rack[8].eps.queue[3] 	dropsum
field count 0
field mean nan
field stddev nan
field sum 0
field sqrsum 0
field min nan
field max nan
statistic Basic.rack[9].node[0].app 	throughput
field count 123620
field mean 61810.5
field stddev 35686.164475886
field sum 7641014010
field sqrsum 6.2972398161547e+014
field min 1
field max 123620
statistic Basic.rack[9].node[0].app 	"End-to-End Delay"
field count 123620
field mean 0.00011471373563017
field stddev 0.00015353158256181
field sum 14.180911998601
field sqrsum 0.0045406858869025
field min 8.496e-007
field max 0.00075367788
statistic Basic.rack[9].node[0].app 	hops
field count 123620
field mean 5.1724235560589
field stddev 0.68880775729262
field sum 639415
field sqrsum 3365977
field min 4
field max 6
statistic Basic.rack[9].node[1].app 	throughput
field count 123531
field mean 61766
field stddev 35660.472388907
field sum 7630015746
field sqrsum 6.2836486008467e+014
field min 1
field max 123531
statistic Basic.rack[9].node[1].app 	"End-to-End Delay"
field count 123531
field mean 0.00011395032124804
field stddev 0.00015300463979415
field sum 14.076397134092
field sqrsum 0.0044958991331581
field min 8.496e-007
field max 0.000828632541
statistic Basic.rack[9].node[1].app 	hops
field count 123531
field mean 5.1738025273008
field stddev 0.6883897970922
field sum 639125
field sqrsum 3365245
field min 4
field max 6
statistic Basic.rack[9].node[2].app 	throughput
field count 123191
field mean 61596
field stddev 35562.322843144
field sum 7588072836
field sqrsum 6.231907165174e+014
field min 1
field max 123191
statistic Basic.rack[9].node[2].app 	"End-to-End Delay"
field count 123191
field mean 0.00011536352556671
field stddev 0.00015384815495711
field sum 14.211748078089
field sqrsum 0.0045553328595593
field min 8.496e-007
field max 0.00075844291
statistic Basic.rack[9].node[2].app 	hops
field count 123191
field mean 5.1742335073179
field stddev 0.68847771101131
field sum 637419
field sqrsum 3356547
field min 4
field max 6
statistic Basic.rack[9].node[3].app 	throughput
field count 123193
field mean 61597
field stddev 35562.900193413
field sum 7588319221
field sqrsum 6.2322106930151e+014
field min 1
field max 123193
statistic Basic.rack[9].node[3].app 	"End-to-End Delay"
field count 123193
field mean 0.00011478234946137
field stddev 0.00015352306783471
field sum 14.140381977194
field sqrsum 0.0045266194573939
field min 8.496e-007
field max 0.000741047922
statistic Basic.rack[9].node[3].app 	hops
field count 123193
field mean 5.1728588474995
field stddev 0.68798688456172
field sum 637260
field sqrsum 3354766
field min 4
field max 6
statistic Basic.rack[9].node[4].app 	throughput
field count 123035
field mean 61518
field stddev 35517.289522147
field sum 7568867130
field sqrsum 6.2082623451541e+014
field min 1
field max 123035
statistic Basic.rack[9].node[4].app 	"End-to-End Delay"
field count 123035
field mean 0.00011488951631723
field stddev 0.00015345919838029
field sum 14.13543164009
field sqrsum 0.0045214298395396
field min 8.496e-007
field max 0.000764378265
statistic Basic.rack[9].node[4].app 	hops
field count 123035
field mean 5.1732352582598
field stddev 0.68761156183975
field sum 636489
field sqrsum 3350879
field min 4
field max 6
statistic Basic.rack[9].node[5].app 	throughput
field count 123615
field mean 61808
field stddev 35684.721100213
field sum 7640395920
field sqrsum 6.2964757456584e+014
field min 1
field max 123615
statistic Basic.rack[9].node[5].app 	"End-to-End Delay"
field count 123615
field mean 0.00011401605615457
field stddev 0.00015283646079795
field sum 14.094094781547
field sqrsum 0.0044944505192396
field min 8.496e-007
field max 0.000746956508
statistic Basic.rack[9].node[5].app 	hops
field count 123615
field mean 5.1742345184646
field stddev 0.68818453164511
field sum 639613
field sqrsum 3368051
field min 4
field max 6
statistic Basic.rack[9].node[6].app 	throughput
field count 123985
field mean 61993
field stddev 35791.530900014
field sum 7686202105
field sqrsum 6.3531840739298e+014
field min 1
field max 123985
statistic Basic.rack[9].node[6].app 	"End-to-End Delay"
field count 123985
field mean 0.00011410563333545
field stddev 0.00015272477134411
field sum 14.147386949096
field sqrsum 0.0045062054671575
field min 8.496e-007
field max 0.000850998474
statistic Basic.rack[9].node[6].app 	hops
field count 123985
field mean 5.174746945195
field stddev 0.69029888855092
field sum 641591
field sqrsum 3379151
field min 4
field max 6
statistic Basic.rack[9].node[7].app 	throughput
field count 123926
field mean 61963.5
field stddev 35774.499067073
field sum 7678888701
field sqrsum 6.3441186706965e+014
field min 1
field max 123926
statistic Basic.rack[9].node[7].app 	"End-to-End Delay"
field count 123926
field mean 0.00011421691258057
field stddev 0.0001530790687082
field sum 14.15444510846
field sqrsum 0.0045206364877784
field min 8.496e-007
field max 0.000772847501
statistic Basic.rack[9].node[7].app 	hops
field count 123926
field mean 5.1733373142036
field stddev 0.68745079177516
field sum 641111
field sqrsum 3375249
field min 4
field max 6
statistic Basic.rack[9].node[8].app 	throughput
field count 123365
field mean 61683
field stddev 35612.552316564
field sum 7609523295
field sqrsum 6.2583509736622e+014
field min 1
field max 123365
statistic Basic.rack[9].node[8].app 	"End-to-End Delay"
field count 123365
field mean 0.0001139414851711
field stddev 0.00015257023633188
field sum 14.056391318132
field sqrsum 0.0044732334501341
field min 8.496e-007
field max 0.000776907024
statistic Basic.rack[9].node[8].app 	hops
field count 123365
field mean 5.172334130426
field stddev 0.69009736014979
field sum 638085
field sqrsum 3359139
field min 4
field max 6
statistic Basic.rack[9].node[9].app 	throughput
field count 123096
field mean 61548.5
field stddev 35534.898705357
field sum 7576374156
field sqrsum 6.2175009419604e+014
field min 1
field max 123096
statistic Basic.rack[9].node[9].app 	"End-to-End Delay"
field count 123096
field mean 0.00011515580273324
field stddev 0.00015347330830083
field sum 14.175218693251
field sqrsum 0.0045317452552736
field min 8.496e-007
field max 0.000725241599
statistic Basic.rack[9].node[9].app 	hops
field count 123096
field mean 5.1681208162735
field stddev 0.68778423674876
field sum 636175
field sqrsum 3346059
field min 4
field max 6
statistic Basic.rack[9].eps.queue[0] 	dropsum
field count 0
field mean nan
field stddev nan
field sum 0
field sqrsum 0
field min nan
field max nan
statistic Basic.rack[9].eps.queue[1] 	dropsum
field count 0
field mean nan
field stddev nan
field sum 0
field sqrsum 0
field min nan
field max nan
statistic Basic.rack[9].eps.queue[2] 	dropsum
field count 0
field mean nan
field stddev nan
field sum 0
field sqrsum 0
field min nan
field max nan
statistic Basic.rack[9].eps.queue[3] 	dropsum
field count 0
field mean nan
field stddev nan
field sum 0
field sqrsum 0
field min nan
field max nan
statistic Basic.rack[10].node[0].app 	throughput
field count 123260
field mean 61630.5
field stddev 35582.241427431
field sum 7596575430
field sqrsum 6.2423845719301e+014
field min 1
field max 123260
statistic Basic.rack[10].node[0].app 	"End-to-End Delay"
field count 123260
field mean 0.00019127753718915
field stddev 0.00016355577743539
field sum 23.576869233935
field sqrsum 0.0078069644161088
field min 8.496e-007
field max 0.000817946244
statistic Basic.rack[10].node[0].app 	hops
field count 123260
field mean 5.0017361674509
field stddev 0.90931705082791
field sum 616514
field sqrsum 3185558
field min 3
field max 6
statistic Basic.rack[10].node[1].app 	throughput
field count 123137
field mean 61569
field stddev 35546.734385876
field sum 7581421953
field sqrsum 6.2237156382502e+014
field min 1
field max 123137
statistic Basic.rack[10].node[1].app 	"End-to-End Delay"
field count 123137
field mean 0.00019112758387164
field stddev 0.00016366805813161
field sum 23.534877295202
field sqrsum 0.007796636987936
field min 8.496e-007
field max 0.000800530481
statistic Basic.rack[10].node[1].app 	hops
field count 123137
field mean 4.9985625766423
field stddev 0.91001706297145
field sum 615508
field sqrsum 3178628
field min 3
field max 6
statistic Basic.rack[10].node[2].app 	throughput
field count 123850
field mean 61925.5
field stddev 35752.559756844
field sum 7669473175
field sqrsum 6.3324539164022e+014
field min 1
field max 123850
statistic Basic.rack[10].node[2].app 	"End-to-End Delay"
field count 123850
field mean 0.00019064948520275
field stddev 0.00016349903333143
field sum 23.61193874236
field sqrsum 0.0078123272474894
field min 8.496e-007
field max 0.000755607448
statistic Basic.rack[10].node[2].app 	hops
field count 123850
field mean 5.00109002826
field stddev 0.9081503185461
field sum 619385
field sqrsum 3199743
field min 3
field max 6
statistic Basic.rack[10].node[3].app 	throughput
field count 123134
field mean 61567.5
field stddev 35545.868360472
field sum 7581052545
field sqrsum 6.2232607640154e+014
field min 1
field max 123134
statistic Basic.rack[10].node[3].app 	"End-to-End Delay"
field count 123134
field mean 0.00019156690155977
field stddev 0.00016370909172332
field sum 23.58839885666
field sqrsum 0.0078188029760827
field min 8.496e-007
field max 0.000808593253
statistic Basic.rack[10].node[3].app 	hops
field count 123134
field mean 5.00402001072
field stddev 0.90889524671639
field sum 616165
field sqrsum 3185021
field min 3
field max 6
statistic Basic.rack[10].node[4].app 	throughput
field count 123063
field mean 61532
field stddev 35525.372425916
field sum 7572312516
field sqrsum 6.2125018754184e+014
field min 1
field max 123063
statistic Basic.rack[10].node[4].app 	"End-to-End Delay"
field count 123063
field mean 0.00019090450561933
field stddev 0.00016342161462022
field sum 23.493281175032
field sqrsum 0.0077715438061759
field min 8.496e-007
field max 0.000747372871
statistic Basic.rack[10].node[4].app 	hops
field count 123063
field mean 5.0011132509365
field stddev 0.90820875796496
field sum 615452
field sqrsum 3179452
field min 3
field max 6
statistic Basic.rack[10].node[5].app 	throughput
field count 123662
field mean 61831.5
field stddev 35698.288831539
field sum 7646206953
field sqrsum 6.3036604488358e+014
field min 1
field max 123662
statistic Basic.rack[10].node[5].app 	"End-to-End Delay"
field count 123662
field mean 0.00019132820299215
field stddev 0.00016364766409876
field sum 23.660028238416
field sqrsum 0.0078385412641071
field min 8.496e-007
field max 0.000760234999
statistic Basic.rack[10].node[5].app 	hops
field count 123662
field mean 5.0029839400948
field stddev 0.91100460761131
field sum 618679
field sqrsum 3197871
field min 3
field max 6
statistic Basic.rack[10].node[6].app 	throughput
field count 123011
field mean 61506
field stddev 35510.361318916
field sum 7565914566
field sqrsum 6.2046299975701e+014
field min 1
field max 123011
statistic Basic.rack[10].node[6].app 	"End-to-End Delay"
field count 123011
field mean 0.00019081851937103
field stddev 0.00016346441881052
field sum 23.47277688635
field sqrsum 0.0077659435318406
field min 8.496e-007
field max 0.000765867866
statistic Basic.rack[10].node[6].app 	hops
field count 123011
field mean 5.0004308557771
field stddev 0.90943879047576
field sum 615108
field sqrsum 3177544
field min 3
field max 6
statistic Basic.rack[10].node[7].app 	throughput
field count 123930
field mean 61965.5
field stddev 35775.653767611
field sum 7679384415
field sqrsum 6.344733001621e+014
field min 1
field max 123930
statistic Basic.rack[10].node[7].app 	"End-to-End Delay"
field count 123930
field mean 0.00019137791752978
field stddev 0.00016373690888794
field sum 23.717465319466
field sqrsum 0.0078615077690655
field min 8.496e-007
field max 0.000762001057
statistic Basic.rack[10].node[7].app 	hops
field count 123930
field mean 4.99832163318
field stddev 0.90815395746094
field sum 619442
field sqrsum 3198380
field min 3
field max 6
statistic Basic.rack[10].node[8].app 	throughput
field count 123174
field mean 61587.5
field stddev 35557.415365856
field sum 7585978725
field sqrsum 6.2293275764168e+014
field min 1
field max 123174
statistic Basic.rack[10].node[8].app 	"End-to-End Delay"
field count 123174
field mean 0.00019112574086544
field stddev 0.00016348152360949
field sum 23.54172200536
field sqrsum 0.0077913763466905
field min 8.496e-007
field max 0.000776536467
statistic Basic.rack[10].node[8].app 	hops
field count 123174
field mean 5.0009661129784
field stddev 0.90808574601683
field sum 615989
field sqrsum 3182111
field min 3
field max 6
statistic Basic.rack[10].node[9].app 	throughput
field count 123738
field mean 61869.5
field stddev 35720.228141769
field sum 7655608191
field sqrsum 6.3152898276137e+014
field min 1
field max 123738
statistic Basic.rack[10].node[9].app 	"End-to-End Delay"
field count 123738
field mean 0.00019080075047817
field stddev 0.00016338115490531
field sum 23.609303262667
field sqrsum 0.0078076342366116
field min 8.496e-007
field max 0.00069759474
statistic Basic.rack[10].node[9].app 	hops
field count 123738
field mean 5.000808159175
field stddev 0.91164729798019
field sum 618790
field sqrsum 3197288
field min 3
field max 6
statistic Basic.rack[10].eps.queue[0] 	dropsum
field count 0
field mean nan
field stddev nan
field sum 0
field sqrsum 0
field min nan
field max nan
statistic Basic.rack[10].eps.queue[1] 	dropsum
field count 60
field mean 30.5
field stddev 17.464249196573
field sum 1830
field sqrsum 73810
field min 1
field max 60
statistic Basic.rack[10].eps.queue[2] 	dropsum
field count 0
field mean nan
field stddev nan
field sum 0
field sqrsum 0
field min nan
field max nan
statistic Basic.rack[10].eps.queue[3] 	dropsum
field count 0
field mean nan
field stddev nan
field sum 0
field sqrsum 0
field min nan
field max nan
statistic Basic.rack[11].node[0].app 	throughput
field count 124312
field mean 62156.5
field stddev 35885.927669027
field sum 7726798828
field sqrsum 6.403584528705e+014
field min 1
field max 124312
statistic Basic.rack[11].node[0].app 	"End-to-End Delay"
field count 124312
field mean 8.4282606905236e-005
field stddev 0.00011082454797444
field sum 10.477339429604
field sqrsum 0.0024098551813567
field min 8.496e-007
field max 0.000694298182
statistic Basic.rack[11].node[0].app 	hops
field count 124312
field mean 4.9901779393783
field stddev 0.91248534891355
field sum 620339
field sqrsum 3199107
field min 3
field max 6
statistic Basic.rack[11].node[1].app 	throughput
field count 123388
field mean 61694.5
field stddev 35619.19184466
field sum 7612360966
field sqrsum 6.2618520070219e+014
field min 1
field max 123388
statistic Basic.rack[11].node[1].app 	"End-to-End Delay"
field count 123388
field mean 8.456487862301e-005
field stddev 0.00011113198051929
field sum 10.434291243536
field sqrsum 0.0024062431478213
field min 8.496e-007
field max 0.000714070496
statistic Basic.rack[11].node[1].app 	hops
field count 123388
field mean 4.9926005770415
field stddev 0.91112801803783
field sum 616027
field sqrsum 3178007
field min 3
field max 6
statistic Basic.rack[11].node[2].app 	throughput
field count 123938
field mean 61969.5
field stddev 35777.963168688
field sum 7680375891
[...]
field stddev 35822.130464281
field sum 7699350186
field sqrsum 6.3694927573735e+014
field min 1
field max 124091
statistic Basic.rack[13].node[2].app 	"End-to-End Delay"
field count 124091
field mean 7.4403816856371e-005
field stddev 0.00010403909401926
field sum 9.232844037524
field sqrsum 0.0020301255112681
field min 8.496e-007
field max 0.000556572694
statistic Basic.rack[13].node[2].app 	hops
field count 124091
field mean 5.156780104923
field stddev 0.68639098895816
field sum 639910
field sqrsum 3358338
field min 4
field max 6
statistic Basic.rack[13].node[3].app 	throughput
field count 123568
field mean 61784.5
field stddev 35671.153368887
field sum 7634587096
field sqrsum 6.2892965038138e+014
field min 1
field max 123568
statistic Basic.rack[13].node[3].app 	"End-to-End Delay"
field count 123568
field mean 7.4180795005286e-005
field stddev 0.00010380509553448
field sum 9.1663724772132
field sqrsum 0.0020114647416076
field min 8.496e-007
field max 0.00052730723
statistic Basic.rack[13].node[3].app 	hops
field count 123568
field mean 5.1584714489188
field stddev 0.68516589074517
field sum 637422
field sqrsum 3346132
field min 4
field max 6
statistic Basic.rack[13].node[4].app 	throughput
field count 123515
field mean 61758
field stddev 35655.853586753
field sum 7628039370
field sqrsum 6.2812073120349e+014
field min 1
field max 123515
statistic Basic.rack[13].node[4].app 	"End-to-End Delay"
field count 123515
field mean 7.4259581455864e-005
field stddev 0.00010389271587505
field sum 9.1721722035211
field sqrsum 0.0020142942874932
field min 8.496e-007
field max 0.000499208312
statistic Basic.rack[13].node[4].app 	hops
field count 123515
field mean 5.1579079464033
field stddev 0.68533267362015
field sum 637079
field sqrsum 3344007
field min 4
field max 6
statistic Basic.rack[13].node[5].app 	throughput
field count 123870
field mean 61935.5
field stddev 35758.333259535
field sum 7671950385
field sqrsum 6.335522201101e+014
field min 1
field max 123870
statistic Basic.rack[13].node[5].app 	"End-to-End Delay"
field count 123870
field mean 7.4039410236878e-005
field stddev 0.00010341513955886
field sum 9.1712617460421
field sqrsum 0.0020037755014296
field min 8.496e-007
field max 0.000516298113
statistic Basic.rack[13].node[5].app 	hops
field count 123870
field mean 5.1586259788488
field stddev 0.68622298584708
field sum 638999
field sqrsum 3354687
field min 4
field max 6
statistic Basic.rack[13].node[6].app 	throughput
field count 123491
field mean 61746
field stddev 35648.925383523
field sum 7625075286
field sqrsum 6.2775465645405e+014
field min 1
field max 123491
statistic Basic.rack[13].node[6].app 	"End-to-End Delay"
field count 123491
field mean 7.4724891874065e-005
field stddev 0.00010451475935001
field sum 9.2278516224201
field sqrsum 0.0020384728442318
field min 8.496e-007
field max 0.000571554486
statistic Basic.rack[13].node[6].app 	hops
field count 123491
field mean 5.161040075795
field stddev 0.68553059053796
field sum 637342
field sqrsum 3347382
field min 4
field max 6
statistic Basic.rack[13].node[7].app 	throughput
field count 123908
field mean 61954.5
field stddev 35769.30291465
field sum 7676658186
field sqrsum 6.3413546722665e+014
field min 1
field max 123908
statistic Basic.rack[13].node[7].app 	"End-to-End Delay"
field count 123908
field mean 7.3647071932297e-005
field stddev 0.00010320715552224
field sum 9.1254613889871
field sqrsum 0.0019918858035768
field min 8.496e-007
field max 0.000515143048
statistic Basic.rack[13].node[7].app 	hops
field count 123908
field mean 5.1573102624528
field stddev 0.68639735334178
field sum 639032
field sqrsum 3354064
field min 4
field max 6
statistic Basic.rack[13].node[8].app 	throughput
field count 123676
field mean 61838.5
field stddev 35702.330283424
field sum 7647938326
field sqrsum 6.3058016291703e+014
field min 1
field max 123676
statistic Basic.rack[13].node[8].app 	"End-to-End Delay"
field count 123676
field mean 7.4370275254683e-005
field stddev 0.00010401260253926
field sum 9.1978181623982
field sqrsum 0.0020220372808836
field min 8.496e-007
field max 0.000521026918
statistic Basic.rack[13].node[8].app 	hops
field count 123676
field mean 5.1589152301174
field stddev 0.68593941207278
field sum 638034
field sqrsum 3349754
field min 4
field max 6
statistic Basic.rack[13].node[9].app 	throughput
field count 123627
field mean 61814
field stddev 35688.185201828
field sum 7641879378
field sqrsum 6.2983096186913e+014
field min 1
field max 123627
statistic Basic.rack[13].node[9].app 	"End-to-End Delay"
field count 123627
field mean 7.4877977473553e-005
field stddev 0.00010457349022769
field sum 9.256939721123
field sqrsum 0.0020450672463969
field min 8.496e-007
field max 0.000541803413
statistic Basic.rack[13].node[9].app 	hops
field count 123627
field mean 5.1577648895468
field stddev 0.68372669468137
field sum 637639
field sqrsum 3346585
field min 4
field max 6
statistic Basic.rack[13].eps.queue[0] 	dropsum
field count 0
field mean nan
field stddev nan
field sum 0
field sqrsum 0
field min nan
field max nan
statistic Basic.rack[13].eps.queue[1] 	dropsum
field count 0
field mean nan
field stddev nan
field sum 0
field sqrsum 0
field min nan
field max nan
statistic Basic.rack[13].eps.queue[2] 	dropsum
field count 0
field mean nan
field stddev nan
field sum 0
field sqrsum 0
field min nan
field max nan
statistic Basic.rack[13].eps.queue[3] 	dropsum
field count 0
field mean nan
field stddev nan
field sum 0
field sqrsum 0
field min nan
field max nan
statistic Basic.rack[14].node[0].app 	throughput
field count 125320
field mean 62660.5
field stddev 36176.912204701
field sum 7852613860
field sqrsum 6.5606233016142e+014
field min 1
field max 125320
statistic Basic.rack[14].node[0].app 	"End-to-End Delay"
field count 125320
field mean 4.4848314858675e-005
field stddev 4.0956501521523e-005
field sum 5.6203908180891
field sqrsum 0.00046227953591917
field min 8.496e-007
field max 0.000523517607
statistic Basic.rack[14].node[0].app 	hops
field count 125320
field mean 5.0011570379828
field stddev 0.91341417728427
field sum 626745
field sqrsum 3239007
field min 3
field max 6
statistic Basic.rack[14].node[1].app 	throughput
field count 124358
field mean 62179.5
field stddev 35899.206725219
field sum 7732518261
field sqrsum 6.4106958144038e+014
field min 1
field max 124358
statistic Basic.rack[14].node[1].app 	"End-to-End Delay"
field count 124358
field mean 4.4640115935148e-005
field stddev 4.0828142700416e-005
field sum 5.5513555374632
field sqrsum 0.00045510846869229
field min 8.496e-007
field max 0.00050909785
statistic Basic.rack[14].node[1].app 	hops
field count 124358
field mean 5.000820212612
field stddev 0.91384415652951
field sum 621892
field sqrsum 3213822
field min 3
field max 6
statistic Basic.rack[14].node[2].app 	throughput
field count 124238
field mean 62119.5
field stddev 35864.565709067
field sum 7717602441
field sqrsum 6.3921556724412e+014
field min 1
field max 124238
statistic Basic.rack[14].node[2].app 	"End-to-End Delay"
field count 124238
field mean 4.4637694240845e-005
field stddev 4.05726787642e-005
field sum 5.5456978570941
field sqrsum 0.00045205894151396
field min 8.496e-007
field max 0.000516925614
statistic Basic.rack[14].node[2].app 	hops
field count 124238
field mean 4.9963537725978
field stddev 0.91334921266904
field sum 620737
field sqrsum 3205061
field min 3
field max 6
statistic Basic.rack[14].node[3].app 	throughput
field count 124764
field mean 62382.5
field stddev 36016.408829865
field sum 7783090230
field sqrsum 6.4736890733389e+014
field min 1
field max 124764
statistic Basic.rack[14].node[3].app 	"End-to-End Delay"
field count 124764
field mean 4.4714682163222e-005
field stddev 4.0600803435015e-005
field sum 5.5787826054122
field sqrsum 0.00045511596922303
field min 8.496e-007
field max 0.000515470068
statistic Basic.rack[14].node[3].app 	hops
field count 124764
field mean 5.0020358436729
field stddev 0.90960903246173
field sum 624074
field sqrsum 3224868
field min 3
field max 6
statistic Basic.rack[14].node[4].app 	throughput
field count 124917
field mean 62459
field stddev 36060.576125459
field sum 7802190903
field sqrsum 6.4975345475034e+014
field min 1
field max 124917
statistic Basic.rack[14].node[4].app 	"End-to-End Delay"
field count 124917
field mean 4.4604021800588e-005
field stddev 4.0734816902935e-005
field sum 5.5718005912641
field sqrsum 0.00045580099522985
field min 8.496e-007
field max 0.000538380471
statistic Basic.rack[14].node[4].app 	hops
field count 124917
field mean 4.9981027402195
field stddev 0.91262484127448
field sum 624348
field sqrsum 3224596
field min 3
field max 6
statistic Basic.rack[14].node[5].app 	throughput
field count 124377
field mean 62189
field stddev 35904.691552776
field sum 7734881253
field sqrsum 6.4136346203e+014
field min 1
field max 124377
statistic Basic.rack[14].node[5].app 	"End-to-End Delay"
field count 124377
field mean 4.4677181697976e-005
field stddev 4.0394886985826e-005
field sum 5.5568138280492
field sqrsum 0.00045121293282006
field min 8.496e-007
field max 0.000512572338
statistic Basic.rack[14].node[5].app 	hops
field count 124377
field mean 4.9986653480949
field stddev 0.91373855064335
field sum 621719
field sqrsum 3211609
field min 3
field max 6
statistic Basic.rack[14].node[6].app 	throughput
field count 125869
field mean 62935
field stddev 36335.394853595
field sum 7921565515
field sqrsum 6.647223270602e+014
field min 1
field max 125869
statistic Basic.rack[14].node[6].app 	"End-to-End Delay"
field count 125869
field mean 4.4762820601841e-005
field stddev 4.0651087676403e-005
field sum 5.6342514663331
field sqrsum 0.00046020323325906
field min 8.496e-007
field max 0.000516541293
statistic Basic.rack[14].node[6].app 	hops
field count 125869
field mean 5.0034559740683
field stddev 0.90962540640621
field sum 629780
field sqrsum 3255222
field min 3
field max 6
statistic Basic.rack[14].node[7].app 	throughput
field count 124592
field mean 62296.5
field stddev 35966.756706715
field sum 7761645528
field sqrsum 6.4469521363156e+014
field min 1
field max 124592
statistic Basic.rack[14].node[7].app 	"End-to-End Delay"
field count 124592
field mean 4.4934085529971e-005
field stddev 4.0956883598277e-005
field sum 5.5984275843502
field sqrsum 0.00046055742944644
field min 8.496e-007
field max 0.000463254291
statistic Basic.rack[14].node[7].app 	hops
field count 124592
field mean 4.9996147425196
field stddev 0.9147599768511
field sum 622912
field sqrsum 3218576
field min 3
field max 6
statistic Basic.rack[14].node[8].app 	throughput
field count 125373
field mean 62687
field stddev 36192.211986835
field sum 7859257251
field sqrsum 6.568950593055e+014
field min 1
field max 125373
statistic Basic.rack[14].node[8].app 	"End-to-End Delay"
field count 125373
field mean 4.4626234693483e-005
field stddev 4.0646692402253e-005
field sum 5.5949249222261
field sqrsum 0.00045681423421751
field min 8.496e-007
field max 0.000541784579
statistic Basic.rack[14].node[8].app 	hops
field count 125373
field mean 5.0038365517296
field stddev 0.91302158698253
field sum 627346
field sqrsum 3243648
field min 3
field max 6
statistic Basic.rack[14].node[9].app 	throughput
field count 124923
field mean 62462
field stddev 36062.308176266
field sum 7802940426
field sqrsum 6.4984708553827e+014
field min 1
field max 124923
statistic Basic.rack[14].node[9].app 	"End-to-End Delay"
field count 124923
field mean 4.4843556442162e-005
field stddev 4.0597636904817e-005
field sum 5.6019916014242
field sqrsum 0.00045710568473537
field min 8.496e-007
field max 0.000493783648
statistic Basic.rack[14].node[9].app 	hops
field count 124923
field mean 5.0007684733796
field stddev 0.91264404417215
field sum 624711
field sqrsum 3228085
field min 3
field max 6
statistic Basic.rack[14].eps.queue[0] 	dropsum
field count 0
field mean nan
field stddev nan
field sum 0
field sqrsum 0
field min nan
field max nan
statistic Basic.rack[14].eps.queue[1] 	dropsum
field count 97
field mean 49
field stddev 28.145455524235
field sum 4753
field sqrsum 308945
field min 1
field max 97
statistic Basic.rack[14].eps.queue[2] 	dropsum
field count 0
field mean nan
field stddev nan
field sum 0
field sqrsum 0
field min nan
field max nan
statistic Basic.rack[14].eps.queue[3] 	dropsum
field count 0
field mean nan
field stddev nan
field sum 0
field sqrsum 0
field min nan
field max nan
statistic Basic.rack[15].node[0].app 	throughput
field count 124836
field mean 62418.5
field stddev 36037.193439556
field sum 7792075866
field sqrsum 6.4849031923061e+014
field min 1
field max 124836
statistic Basic.rack[15].node[0].app 	"End-to-End Delay"
field count 124836
field mean 5.9187678313796e-005
field stddev 6.1451902074829e-005
field sum 7.388753009981
field sqrsum 0.00090874207438732
field min 8.496e-007
field max 0.000618847152
statistic Basic.rack[15].node[0].app 	hops
field count 124836
field mean 4.9996475375693
field stddev 0.91527573938658
field sum 624136
field sqrsum 3225038
field min 3
field max 6
statistic Basic.rack[15].node[1].app 	throughput
field count 125368
field mean 62684.5
field stddev 36190.768611162
field sum 7858630396
field sqrsum 6.5681646986728e+014
field min 1
field max 125368
statistic Basic.rack[15].node[1].app 	"End-to-End Delay"
field count 125368
field mean 5.9149003640418e-005
field stddev 6.1162191217642e-005
field sum 7.4153922883919
field sqrsum 0.00090758764838302
field min 8.496e-007
field max 0.000538402556
statistic Basic.rack[15].node[1].app 	hops
field count 125368
field mean 5.0003110841682
field stddev 0.9141042722926
field sum 626879
field sqrsum 3239345
field min 3
field max 6
statistic Basic.rack[15].node[2].app 	throughput
field count 124908
field mean 62454.5
field stddev 36057.978049247
field sum 7801066686
field sqrsum 6.4961302543215e+014
field min 1
field max 124908
statistic Basic.rack[15].node[2].app 	"End-to-End Delay"
field count 124908
field mean 5.8941797064543e-005
field stddev 6.1429006566632e-005
field sum 7.3623019877379
field sqrsum 0.0009052867280347
field min 8.496e-007
field max 0.000598322056
statistic Basic.rack[15].node[2].app 	hops
field count 124908
field mean 4.9983908156403
field stddev 0.91295647686013
field sum 624339
field sqrsum 3224799
field min 3
field max 6
statistic Basic.rack[15].node[3].app 	throughput
field count 124973
field mean 62487
field stddev 36076.741932996
field sum 7809187851
field sqrsum 6.506276919313e+014
field min 1
field max 124973
statistic Basic.rack[15].node[3].app 	"End-to-End Delay"
field count 124973
field mean 5.9041426391347e-005
field stddev 6.1308649557382e-005
field sum 7.3785841804058
field sqrsum 0.00090538070356422
field min 8.496e-007
field max 0.000583588996
statistic Basic.rack[15].node[3].app 	hops
field count 124973
field mean 5.0000400086419
field stddev 0.91286946737663
field sum 624870
field sqrsum 3228518
field min 3
field max 6
statistic Basic.rack[15].node[4].app 	throughput
field count 125487
field mean 62744
field stddev 36225.120952179
field sum 7873556328
field sqrsum 6.586885998066e+014
field min 1
field max 125487
statistic Basic.rack[15].node[4].app 	"End-to-End Delay"
field count 125487
field mean 5.8940812833568e-005
field stddev 6.1626803271219e-005
field sum 7.396305780046
field sqrsum 0.0009125228961806
field min 8.496e-007
field max 0.000584237842
statistic Basic.rack[15].node[4].app 	hops
field count 125487
field mean 4.9993784216692
field stddev 0.91189393222102
field sum 627357
field sqrsum 3240743
field min 3
field max 6
statistic Basic.rack[15].node[5].app 	throughput
field count 125474
field mean 62737.5
field stddev 36221.368175429
field sum 7871925075
field sqrsum 6.5848390854872e+014
field min 1
field max 125474
statistic Basic.rack[15].node[5].app 	"End-to-End Delay"
field count 125474
field mean 5.8927649426232e-005
field stddev 6.1508444852339e-005
field sum 7.393887884107
field sqrsum 0.00091040502724748
field min 8.496e-007
field max 0.00059669945
statistic Basic.rack[15].node[5].app 	hops
field count 125474
field mean 4.9977206433205
field stddev 0.91268981730118
field sum 627084
field sqrsum 3238510
field min 3
field max 6
statistic Basic.rack[15].node[6].app 	throughput
field count 125330
field mean 62665.5
field stddev 36179.798956047
field sum 7853867115
field sqrsum 6.56219394971e+014
field min 1
field max 125330
statistic Basic.rack[15].node[6].app 	"End-to-End Delay"
field count 125330
field mean 5.8776424286165e-005
field stddev 6.1202933348409e-005
field sum 7.366449255785
field sqrsum 0.00090243079613434
field min 8.496e-007
field max 0.000596993027
statistic Basic.rack[15].node[6].app 	hops
field count 125330
field mean 4.9988909279502
field stddev 0.91412002872066
field sum 626511
field sqrsum 3236587
field min 3
field max 6
statistic Basic.rack[15].node[7].app 	throughput
field count 125095
field mean 62548
field stddev 36111.960299417
field sum 7824442060
field sqrsum 6.5253499447782e+014
field min 1
field max 125095
statistic Basic.rack[15].node[7].app 	"End-to-End Delay"
field count 125095
field mean 5.9053091527383e-005
field stddev 6.1611533988023e-005
field sum 7.387246484618
field sqrsum 0.00091109420506146
field min 8.496e-007
field max 0.000540415807
statistic Basic.rack[15].node[7].app 	hops
field count 125095
field mean 5.0017586634158
field stddev 0.91184847485001
field sum 625695
field sqrsum 3233587
field min 3
field max 6
statistic Basic.rack[15].node[8].app 	throughput
field count 125417
field mean 62709
field stddev 36204.913692757
field sum 7864774653
field sqrsum 6.5758691669508e+014
field min 1
field max 125417
statistic Basic.rack[15].node[8].app 	"End-to-End Delay"
field count 125417
field mean 5.898971900137e-005
field stddev 6.1413968389572e-005
field sum 7.3983135879949
field sqrsum 0.00090945289582282
field min 8.496e-007
field max 0.000616610213
statistic Basic.rack[15].node[8].app 	hops
field count 125417
field mean 5.0017382013603
field stddev 0.91183219020946
field sum 627303
field sqrsum 3241881
field min 3
field max 6
statistic Basic.rack[15].node[9].app 	throughput
field count 125098
field mean 62549.5
field stddev 36112.826324821
field sum 7824817351
field sqrsum 6.5258194225605e+014
field min 1
field max 125098
statistic Basic.rack[15].node[9].app 	"End-to-End Delay"
field count 125098
field mean 5.9163083219172e-005
field stddev 6.1621384225655e-005
field sum 7.401183384552
field sqrsum 0.00091289453065073
field min 8.496e-007
field max 0.000605117684
statistic Basic.rack[15].node[9].app 	hops
field count 125098
field mean 4.9980015667717
field stddev 0.91315110439649
field sum 625240
field sqrsum 3229262
field min 3
field max 6
statistic Basic.rack[15].eps.queue[0] 	dropsum
field count 0
field mean nan
field stddev nan
field sum 0
field sqrsum 0
field min nan
field max nan
statistic Basic.rack[15].eps.queue[1] 	dropsum
field count 0
field mean nan
field stddev nan
field sum 0
field sqrsum 0
field min nan
field max nan
statistic Basic.rack[15].eps.queue[2] 	dropsum
field count 0
field mean nan
field stddev nan
field sum 0
field sqrsum 0
field min nan
field max nan
statistic Basic.rack[15].eps.queue[3] 	dropsum
field count 0
field mean nan
field stddev nan
field sum 0
field sqrsum 0
field min nan
field max nan
