version 2
run Basic-75-20180510-20:43:39-22224
attr configname Basic
attr datetime 20180510-20:43:39
attr experiment Basic
attr inifile omnetpp.ini
attr iterationvars "$0=exponential(0.05 ms), $1=6, $2=5"
attr iterationvarsf exponential(0.05_ms),6,5-
attr measurement "$0=exponential(0.05 ms), $1=6, $2=5"
attr network Networks.Basic
attr processid 22224
attr repetition 0
attr replication #0
attr resultdir results
attr runnumber 75
attr seedset 75
param **.frameCapacity 50
param **.packetLength "1024 bytes"
param **.pattern 6
param **.sendIaTime "exponential(0.05 ms)"
param **.tp 5

statistic Basic.rack[0].node[0].app 	throughput
field count 124211
field mean 62106
field stddev 35856.771480433
field sum 7714248366
field sqrsum 6.3879890727561e+014
field min 1
field max 124211
statistic Basic.rack[0].node[0].app 	"End-to-End Delay"
field count 124211
field mean 0.00022063460485939
field stddev 0.00022683582483664
field sum 27.40524490419
field sqrsum 0.012437707760947
field min 9.4416e-006
field max 0.000834802069
statistic Basic.rack[0].node[0].app 	hops
field count 124211
field mean 5.8596903655876
field stddev 0.855649795577
field sum 727838
field sqrsum 4355844
field min 4
field max 7
statistic Basic.rack[0].node[1].app 	throughput
field count 123385
field mean 61693
field stddev 35618.325819256
field sum 7611990805
field sqrsum 6.2613952764688e+014
field min 1
field max 123385
statistic Basic.rack[0].node[1].app 	"End-to-End Delay"
field count 123385
field mean 0.00022111228222521
field stddev 0.00022721917416043
field sum 27.281938942358
field sqrsum 0.012402509179523
field min 9.4416e-006
field max 0.000834799653
statistic Basic.rack[0].node[1].app 	hops
field count 123385
field mean 5.8577217652065
field stddev 0.85555206994658
field sum 722755
field sqrsum 4324011
field min 4
field max 7
statistic Basic.rack[0].node[2].app 	throughput
field count 123816
field mean 61908.5
field stddev 35742.744802267
field sum 7665262836
field sqrsum 6.327240106224e+014
field min 1
field max 123816
statistic Basic.rack[0].node[2].app 	"End-to-End Delay"
field count 123816
field mean 0.00022058680888665
field stddev 0.00022725397248119
field sum 27.312176329109
field sqrsum 0.012419053245158
field min 9.4416e-006
field max 0.000834857594
statistic Basic.rack[0].node[2].app 	hops
field count 123816
field mean 5.8590166052853
field stddev 0.85525091996744
field sum 725440
field sqrsum 4340930
field min 4
field max 7
statistic Basic.rack[0].node[3].app 	throughput
field count 124167
field mean 62084
field stddev 35844.069774511
field sum 7708784028
field sqrsum 6.3812029386446e+014
field min 1
field max 124167
statistic Basic.rack[0].node[3].app 	"End-to-End Delay"
field count 124167
field mean 0.00022132693526953
field stddev 0.00022714449443245
field sum 27.481501571612
field sqrsum 0.012488694274115
field min 9.4416e-006
field max 0.00083486158
statistic Basic.rack[0].node[3].app 	hops
field count 124167
field mean 5.8623144635853
field stddev 0.85439541667232
field sum 727906
field sqrsum 4357854
field min 4
field max 7
statistic Basic.rack[0].node[4].app 	throughput
field count 124191
field mean 62096
field stddev 35850.997977741
field sum 7711764336
field sqrsum 6.384903870229e+014
field min 1
field max 124191
statistic Basic.rack[0].node[4].app 	"End-to-End Delay"
field count 124191
field mean 0.0002215323912064
field stddev 0.00022773111070749
field sum 27.512329196315
field sqrsum 0.012535546640911
field min 9.4416e-006
field max 0.000834848466
statistic Basic.rack[0].node[4].app 	hops
field count 124191
field mean 5.8595389359938
field stddev 0.85469764822929
field sum 727702
field sqrsum 4354720
field min 4
field max 7
statistic Basic.rack[0].node[5].app 	throughput
field count 123459
field mean 61730
field stddev 35639.687779216
field sum 7621124070
field sqrsum 6.2726677808011e+014
field min 1
field max 123459
statistic Basic.rack[0].node[5].app 	"End-to-End Delay"
field count 123459
field mean 0.00022151183099615
field stddev 0.00022759140795578
field sum 27.347629142953
field sqrsum 0.012452682243651
field min 9.4416e-006
field max 0.000834851892
statistic Basic.rack[0].node[5].app 	hops
field count 123459
field mean 5.8591030220559
field stddev 0.85509100140633
field sum 723359
field sqrsum 4328505
field min 4
field max 7
statistic Basic.rack[0].node[6].app 	throughput
field count 123809
field mean 61905
field stddev 35740.724076325
field sum 7664396145
field sqrsum 6.3261670300958e+014
field min 1
field max 123809
statistic Basic.rack[0].node[6].app 	"End-to-End Delay"
field count 123809
field mean 0.00022062082797442
field stddev 0.00022750303175987
field sum 27.314844090685
field sqrsum 0.012434232107455
field min 9.4416e-006
field max 0.000834850965
statistic Basic.rack[0].node[6].app 	hops
field count 123809
field mean 5.8640405786332
field stddev 0.85594251709081
field sum 726021
field sqrsum 4348123
field min 4
field max 7
statistic Basic.rack[0].node[7].app 	throughput
field count 123532
field mean 61766.5
field stddev 35660.761064042
field sum 7630139278
field sqrsum 6.2838012023969e+014
field min 1
field max 123532
statistic Basic.rack[0].node[7].app 	"End-to-End Delay"
field count 123532
field mean 0.00022196135296182
field stddev 0.0002280455660538
field sum 27.419329854079
field sqrsum 0.012510234054208
field min 9.4416e-006
field max 0.000834818597
statistic Basic.rack[0].node[7].app 	hops
field count 123532
field mean 5.8566444322119
field stddev 0.85319001457953
field sum 723483
field sqrsum 4327105
field min 4
field max 7
statistic Basic.rack[0].node[8].app 	throughput
field count 123704
field mean 61852.5
field stddev 35710.413187192
field sum 7651401660
field sqrsum 6.3100854443298e+014
field min 1
field max 123704
statistic Basic.rack[0].node[8].app 	"End-to-End Delay"
field count 123704
field mean 0.00022129864986151
field stddev 0.0002278115116627
field sum 27.375528182468
field sqrsum 0.012478116215737
field min 9.4416e-006
field max 0.000834828311
statistic Basic.rack[0].node[8].app 	hops
field count 123704
field mean 5.8610554226217
field stddev 0.85308720512783
field sum 725036
field sqrsum 4339502
field min 4
field max 7
statistic Basic.rack[0].node[9].app 	throughput
field count 123958
field mean 61979.5
field stddev 35783.73667138
field sum 7682854861
field sqrsum 6.3490344285818e+014
field min 1
field max 123958
statistic Basic.rack[0].node[9].app 	"End-to-End Delay"
field count 123958
field mean 0.00022146572688649
field stddev 0.00022795888256863
field sum 27.452448573396
field sqrsum 0.012521233237879
field min 9.4416e-006
field max 0.0008347766
statistic Basic.rack[0].node[9].app 	hops
field count 123958
field mean 5.8579357524323
field stddev 0.85628500508978
field sum 726138
field sqrsum 4344558
field min 4
field max 7
statistic Basic.rack[0].eps.queue[0] 	dropsum
field count 0
field mean nan
field stddev nan
field sum 0
field sqrsum 0
field min nan
field max nan
statistic Basic.rack[0].eps.queue[1] 	dropsum
field count 0
field mean nan
field stddev nan
field sum 0
field sqrsum 0
field min nan
field max nan
statistic Basic.rack[0].eps.queue[2] 	dropsum
field count 0
field mean nan
field stddev nan
field sum 0
field sqrsum 0
field min nan
field max nan
statistic Basic.rack[0].eps.queue[3] 	dropsum
field count 0
field mean nan
field stddev nan
field sum 0
field sqrsum 0
field min nan
field max nan
statistic Basic.rack[1].node[0].app 	throughput
field count 123761
field mean 61881
field stddev 35726.867669864
field sum 7658454441
field sqrsum 6.3188120619988e+014
field min 1
field max 123761
statistic Basic.rack[1].node[0].app 	"End-to-End Delay"
field count 123761
field mean 0.00021521628373252
field stddev 0.00023619935220893
field sum 26.63538249102
field sqrsum 0.012636955017361
field min 8.496e-007
field max 0.00090009545
statistic Basic.rack[1].node[0].app 	hops
field count 123761
field mean 5.3110107384394
field stddev 0.84738792949875
field sum 657296
field sqrsum 3579774
field min 4
field max 7
statistic Basic.rack[1].node[1].app 	throughput
field count 123944
field mean 61972.5
field stddev 35779.695219496
field sum 7681119540
field sqrsum 6.3468834721702e+014
field min 1
field max 123944
statistic Basic.rack[1].node[1].app 	"End-to-End Delay"
field count 123944
field mean 0.00021560594856309
field stddev 0.00023626144556547
field sum 26.723063688704
field sqrsum 0.012680084147213
field min 8.496e-007
field max 0.000896203155
statistic Basic.rack[1].node[1].app 	hops
field count 123944
field mean 5.3082198412186
field stddev 0.84522428145255
field sum 657922
field sqrsum 3580940
field min 4
field max 7
statistic Basic.rack[1].node[2].app 	throughput
field count 123024
field mean 61512.5
field stddev 35514.114095666
field sum 7567513800
field sqrsum 6.206597343254e+014
field min 1
field max 123024
statistic Basic.rack[1].node[2].app 	"End-to-End Delay"
field count 123024
field mean 0.00021589062895163
field stddev 0.00023661995740548
field sum 26.559728736145
field sqrsum 0.012621931810565
field min 8.496e-007
field max 0.000924351726
statistic Basic.rack[1].node[2].app 	hops
field count 123024
field mean 5.3111425412928
field stddev 0.84248838119382
field sum 653398
field sqrsum 3557610
field min 4
field max 7
statistic Basic.rack[1].node[3].app 	throughput
field count 123897
field mean 61949
field stddev 35766.12748817
field sum 7675295253
field sqrsum 6.3396659573904e+014
field min 1
field max 123897
statistic Basic.rack[1].node[3].app 	"End-to-End Delay"
field count 123897
field mean 0.00021533319367543
field stddev 0.00023655732892103
field sum 26.679136696804
field sqrsum 0.012678045798376
field min 8.496e-007
field max 0.000901842531
statistic Basic.rack[1].node[3].app 	hops
field count 123897
field mean 5.3069323712439
field stddev 0.84582646983784
field sum 657513
field sqrsum 3578015
field min 4
field max 7
statistic Basic.rack[1].node[4].app 	throughput
field count 124245
field mean 62123
field stddev 35866.586435009
field sum 7718472135
field sqrsum 6.393236197661e+014
field min 1
field max 124245
statistic Basic.rack[1].node[4].app 	"End-to-End Delay"
field count 124245
field mean 0.00021554593732166
field stddev 0.00023619912323543
field sum 26.780504982529
field sqrsum 0.012704005016037
field min 8.496e-007
field max 0.000928749966
statistic Basic.rack[1].node[4].app 	hops
field count 124245
field mean 5.3086321381142
field stddev 0.84686423649781
field sum 659571
field sqrsum 3590525
field min 4
field max 7
statistic Basic.rack[1].node[5].app 	throughput
field count 123797
field mean 61899
field stddev 35737.25997471
field sum 7662910503
field sqrsum 6.324327753301e+014
field min 1
field max 123797
statistic Basic.rack[1].node[5].app 	"End-to-End Delay"
field count 123797
field mean 0.00021621213130344
field stddev 0.00023655899834302
field sum 26.766413218972
field sqrsum 0.012714867179279
field min 8.496e-007
field max 0.000914101552
statistic Basic.rack[1].node[5].app 	hops
field count 123797
field mean 5.3094905369274
field stddev 0.84632172208312
field sum 657299
field sqrsum 3578593
field min 4
field max 7
statistic Basic.rack[1].node[6].app 	throughput
field count 123056
field mean 61528.5
field stddev 35523.351699973
field sum 7571451096
field sqrsum 6.2114418119662e+014
field min 1
field max 123056
statistic Basic.rack[1].node[6].app 	"End-to-End Delay"
field count 123056
field mean 0.00021592033427443
field stddev 0.00023661039738682
field sum 26.570292654475
field sqrsum 0.012626236676773
field min 8.496e-007
field max 0.000901222294
statistic Basic.rack[1].node[6].app 	hops
field count 123056
field mean 5.3050968664673
field stddev 0.84594721902371
field sum 652824
field sqrsum 3551356
field min 4
field max 7
statistic Basic.rack[1].node[7].app 	throughput
field count 123007
field mean 61504
field stddev 35509.206618378
field sum 7565422528
field sqrsum 6.2040247440864e+014
field min 1
field max 123007
statistic Basic.rack[1].node[7].app 	"End-to-End Delay"
field count 123007
field mean 0.00021510071652879
field stddev 0.00023651228391778
field sum 26.458893838057
field sqrsum 0.0125720440861
field min 8.496e-007
field max 0.000912825143
statistic Basic.rack[1].node[7].app 	hops
field count 123007
field mean 5.3043891811035
field stddev 0.8455275487
field sum 652477
field sqrsum 3548931
field min 4
field max 7
statistic Basic.rack[1].node[8].app 	throughput
field count 123319
field mean 61660
field stddev 35599.273260372
field sum 7603849540
field sqrsum 6.2513528223202e+014
field min 1
field max 123319
statistic Basic.rack[1].node[8].app 	"End-to-End Delay"
field count 123319
field mean 0.00021558844474553
field stddev 0.00023669025126713
field sum 26.586151417574
field sqrsum 0.012640221949871
field min 8.496e-007
field max 0.000913508531
statistic Basic.rack[1].node[8].app 	hops
field count 123319
field mean 5.3108523422992
field stddev 0.84480637319412
field sum 654929
field sqrsum 3566243
field min 4
field max 7
statistic Basic.rack[1].node[9].app 	throughput
field count 123403
field mean 61702
field stddev 35623.521971679
field sum 7614211906
field sqrsum 6.2641359929471e+014
field min 1
field max 123403
statistic Basic.rack[1].node[9].app 	"End-to-End Delay"
field count 123403
field mean 0.00021673775667565
field stddev 0.00023703051318659
field sum 26.746089387045
field sqrsum 0.012730039260519
field min 8.496e-007
field max 0.000913586344
statistic Basic.rack[1].node[9].app 	hops
field count 123403
field mean 5.3071643314992
field stddev 0.84574684534475
field sum 654920
field sqrsum 3564036
field min 4
field max 7
statistic Basic.rack[1].eps.queue[0] 	dropsum
field count 0
field mean nan
field stddev nan
field sum 0
field sqrsum 0
field min nan
field max nan
statistic Basic.rack[1].eps.queue[1] 	dropsum
field count 112898
field mean 56449.5
field stddev 32590.989682733
field sum 6373035651
field sqrsum 4.7967077696295e+014
field min 1
field max 112898
statistic Basic.rack[1].eps.queue[2] 	dropsum
field count 0
field mean nan
field stddev nan
field sum 0
field sqrsum 0
field min nan
field max nan
statistic Basic.rack[1].eps.queue[3] 	dropsum
field count 0
field mean nan
field stddev nan
field sum 0
field sqrsum 0
field min nan
field max nan
statistic Basic.rack[2].node[0].app 	throughput
field count 101968
field mean 50984.5
field stddev 29435.770461577
field sum 5198787496
field sqrsum 3.5340837519058e+014
field min 1
field max 101968
statistic Basic.rack[2].node[0].app 	"End-to-End Delay"
field count 101968
field mean 0.00044655446729372
field stddev 0.00013195630744262
field sum 45.534265921006
field sqrsum 0.022109026892089
field min 9.4416e-006
field max 0.000834868754
statistic Basic.rack[2].node[0].app 	hops
field count 101968
field mean 5.4219755217323
field stddev 0.94093431895996
field sum 552868
field sqrsum 3087914
field min 3
field max 7
statistic Basic.rack[2].node[1].app 	throughput
field count 102647
field mean 51324
field stddev 29631.78087797
field sum 5268254628
field sqrsum 3.6051544461842e+014
field min 1
field max 102647
statistic Basic.rack[2].node[1].app 	"End-to-End Delay"
field count 102647
field mean 0.00044662042494782
field stddev 0.00013240464431698
field sum 45.844246759619
field sqrsum 0.022274462951972
field min 1.6198475e-005
field max 0.000834755576
statistic Basic.rack[2].node[1].app 	hops
field count 102647
field mean 5.4178592652489
field stddev 0.93840867488217
field sum 556127
field sqrsum 3103409
field min 3
field max 7
statistic Basic.rack[2].node[2].app 	throughput
field count 102449
field mean 51225
field stddev 29574.623201319
field sum 5247950025
field sqrsum 3.5843323739082e+014
field min 1
field max 102449
statistic Basic.rack[2].node[2].app 	"End-to-End Delay"
field count 102449
field mean 0.00044593288132915
field stddev 0.00013087618469717
field sum 45.68537775929
field sqrsum 0.022127400464264
field min 1.80336e-005
field max 0.000834920247
statistic Basic.rack[2].node[2].app 	hops
field count 102449
field mean 5.4261535007662
field stddev 0.93963914318707
field sum 555904
field sqrsum 3106874
field min 3
field max 7
statistic Basic.rack[2].node[3].app 	throughput
field count 102373
field mean 51187
field stddev 29552.68389109
field sum 5240166751
field sqrsum 3.57636140589e+014
field min 1
field max 102373
statistic Basic.rack[2].node[3].app 	"End-to-End Delay"
field count 102373
field mean 0.00044601310613917
field stddev 0.00013117900272141
field sum 45.659699714785
field sqrsum 0.022126434782422
field min 3.611058e-005
field max 0.000834764446
statistic Basic.rack[2].node[3].app 	hops
field count 102373
field mean 5.4211364324578
field stddev 0.94394396720196
field sum 554978
field sqrsum 3099828
field min 3
field max 7
statistic Basic.rack[2].node[4].app 	throughput
field count 102708
field mean 51354.5
field stddev 29649.39006118
field sum 5274517986
field sqrsum 3.6115855371005e+014
field min 1
field max 102708
statistic Basic.rack[2].node[4].app 	"End-to-End Delay"
field count 102708
field mean 0.00044652089420552
field stddev 0.00013158654079027
field sum 45.861268002061
field sqrsum 0.022256387922355
field min 3.2804916e-005
field max 0.000834878023
statistic Basic.rack[2].node[4].app 	hops
field count 102708
field mean 5.4246309927172
field stddev 0.94116797444973
field sum 557153
field sqrsum 3113327
field min 3
field max 7
statistic Basic.rack[2].node[5].app 	throughput
field count 102212
field mean 51106.5
field stddev 29506.207194419
field sum 5223697578
field sqrsum 3.5595145912755e+014
field min 1
field max 102212
statistic Basic.rack[2].node[5].app 	"End-to-End Delay"
field count 102212
field mean 0.00044631237960289
field stddev 0.00013143514134637
field sum 45.61848094397
field sqrsum 0.022125807881244
field min 9.4416e-006
field max 0.000834839956
statistic Basic.rack[2].node[5].app 	hops
field count 102212
field mean 5.4169862638438
field stddev 0.94377572986169
field sum 553681
field sqrsum 3090323
field min 3
field max 7
statistic Basic.rack[2].node[6].app 	throughput
field count 102536
field mean 51268.5
field stddev 29599.737938029
field sum 5256866916
field sqrsum 3.5934715635496e+014
field min 1
field max 102536
statistic Basic.rack[2].node[6].app 	"End-to-End Delay"
field count 102536
field mean 0.00044567008813425
field stddev 0.00013085392183859
field sum 45.697228156934
field sqrsum 0.022121568754607
field min 4.8133363e-005
field max 0.000834879578
statistic Basic.rack[2].node[6].app 	hops
field count 102536
field mean 5.4197842708902
field stddev 0.94440074886059
field sum 555723
field sqrsum 3103349
field min 3
field max 7
statistic Basic.rack[2].node[7].app 	throughput
field count 102199
field mean 51100
field stddev 29502.45441767
field sum 5222368900
field sqrsum 3.558156602637e+014
field min 1
field max 102199
statistic Basic.rack[2].node[7].app 	"End-to-End Delay"
field count 102199
field mean 0.00044593119028274
field stddev 0.0001313573475245
field sum 45.573721715706
field sqrsum 0.022086145191708
field min 2.6634893e-005
field max 0.000834864057
statistic Basic.rack[2].node[7].app 	hops
field count 102199
field mean 5.4194952983884
field stddev 0.94321750674463
field sum 553867
field sqrsum 3092601
field min 3
field max 7
statistic Basic.rack[2].node[8].app 	throughput
field count 102166
field mean 51083.5
field stddev 29492.928138228
field sum 5218996861
field sqrsum 3.5547109519957e+014
field min 1
field max 102166
statistic Basic.rack[2].node[8].app 	"End-to-End Delay"
field count 102166
field mean 0.00044628691245308
field stddev 0.00013152043311268
field sum 45.595348697682
field sqrsum 0.022115819181791
field min 5.1774216e-005
field max 0.000834843022
statistic Basic.rack[2].node[8].app 	hops
field count 102166
field mean 5.4218233071668
field stddev 0.94240286560763
field sum 553926
field sqrsum 3094024
field min 3
field max 7
statistic Basic.rack[2].node[9].app 	throughput
field count 102116
field mean 51058.5
field stddev 29478.494381498
field sum 5213889786
field sqrsum 3.5494945088805e+014
field min 1
field max 102116
statistic Basic.rack[2].node[9].app 	"End-to-End Delay"
field count 102116
field mean 0.00044581654614292
field stddev 0.00013115459926933
field sum 45.52500242593
field sqrsum 0.02205233346927
field min 5.4983292e-005
field max 0.000834855717
statistic Basic.rack[2].node[9].app 	hops
field count 102116
field mean 5.4222648752399
field stddev 0.93861925541781
field sum 553700
field sqrsum 3092272
field min 3
field max 7
statistic Basic.rack[2].eps.queue[0] 	dropsum
field count 0
field mean nan
field stddev nan
field sum 0
field sqrsum 0
field min nan
field max nan
statistic Basic.rack[2].eps.queue[1] 	dropsum
field count 1949559
field mean 974780
field stddev 562789.35106471
field sum 1900391122020
field sqrsum 2.4699503771034e+018
field min 1
field max 1949559
statistic Basic.rack[2].eps.queue[2] 	dropsum
field count 0
field mean nan
field stddev nan
field sum 0
field sqrsum 0
field min nan
field max nan
statistic Basic.rack[2].eps.queue[3] 	dropsum
field count 0
field mean nan
field stddev nan
field sum 0
field sqrsum 0
field min nan
field max nan
statistic Basic.rack[3].node[0].app 	throughput
field count 104645
field mean 52323
field stddev 30208.553796897
field sum 5475340335
field sqrsum 3.819798180175e+014
field min 1
field max 104645
statistic Basic.rack[3].node[0].app 	"End-to-End Delay"
field count 104645
field mean 0.00046066374856667
field stddev 0.00014883360027196
field sum 48.206157968759
field sqrsum 0.024524844780884
field min 1.4275262e-005
field max 0.000835628632
statistic Basic.rack[3].node[0].app 	hops
field count 104645
field mean 5.4456400210235
field stddev 0.93075713782897
field sum 569859
field sqrsum 3193901
field min 3
field max 7
statistic Basic.rack[3].node[1].app 	throughput
field count 104788
field mean 52394.5
field stddev 30249.834341144
field sum 5490314866
field sqrsum 3.8354790622389e+014
field min 1
field max 104788
statistic Basic.rack[3].node[1].app 	"End-to-End Delay"
field count 104788
field mean 0.0004609911494413
field stddev 0.00014936556846743
field sum 48.306340567654
field sqrsum 0.024606601087605
field min 1.1082242e-005
field max 0.000835627658
statistic Basic.rack[3].node[1].app 	hops
field count 104788
field mean 5.4442111692178
field stddev 0.92545631718261
field sum 570488
field sqrsum 3195604
field min 3
field max 7
statistic Basic.rack[3].node[2].app 	throughput
field count 105232
field mean 52616.5
field stddev 30378.006100906
field sum 5536939528
field sqrsum 3.8844399258684e+014
field min 1
field max 105232
statistic Basic.rack[3].node[2].app 	"End-to-End Delay"
field count 105232
field mean 0.00046066528860776
field stddev 0.00014884862302498
field sum 48.476729650771
field sqrsum 0.024663035491663
field min 9.4416e-006
field max 0.000835625871
statistic Basic.rack[3].node[2].app 	hops
field count 105232
field mean 5.4409685266839
field stddev 0.925467435581
field sum 572564
field sqrsum 3205432
field min 3
field max 7
statistic Basic.rack[3].node[3].app 	throughput
field count 104680
field mean 52340.5
field stddev 30218.657426608
field sum 5479003540
field sqrsum 3.8236322004598e+014
field min 1
field max 104680
statistic Basic.rack[3].node[3].app 	"End-to-End Delay"
field count 104680
field mean 0.00046059484350964
field stddev 0.00014836598800995
field sum 48.215068218589
field sqrsum 0.024511854771041
field min 1.8469559e-005
field max 0.000835628073
statistic Basic.rack[3].node[3].app 	hops
field count 104680
field mean 5.4431505540695
field stddev 0.92829750097703
field sum 569789
field sqrsum 3191653
field min 3
field max 7
statistic Basic.rack[3].node[4].app 	throughput
field count 104483
field mean 52242
field stddev 30161.788425092
field sum 5458400886
field sqrsum 3.8020855264825e+014
field min 1
field max 104483
statistic Basic.rack[3].node[4].app 	"End-to-End Delay"
field count 104483
field mean 0.00046062290770679
field stddev 0.00014889633640508
field sum 48.127263265928
field sqrsum 0.024484898318342
field min 1.6251682e-005
field max 0.000835628867
statistic Basic.rack[3].node[4].app 	hops
field count 104483
field mean 5.4453356048352
field stddev 0.92502650389863
field sum 568945
field sqrsum 3187499
field min 3
field max 7
statistic Basic.rack[3].node[5].app 	throughput
field count 103843
field mean 51922
field stddev 29977.036338949
field sum 5391736246
field sqrsum 3.7326450857433e+014
field min 1
field max 103843
statistic Basic.rack[3].node[5].app 	"End-to-End Delay"
field count 103843
field mean 0.00046033807372207
field stddev 0.00014891808656616
field sum 47.802886589521
field sqrsum 0.024308350865405
field min 9.4416e-006
field max 0.000835628874
statistic Basic.rack[3].node[5].app 	hops
field count 103843
field mean 5.4443727550244
field stddev 0.92695313275033
field sum 565360
field sqrsum 3167256
field min 3
field max 7
statistic Basic.rack[3].node[6].app 	throughput
field count 104498
field mean 52249.5
field stddev 30166.118552111
field sum 5459968251
field sqrsum 3.8037232818475e+014
field min 1
field max 104498
statistic Basic.rack[3].node[6].app 	"End-to-End Delay"
field count 104498
field mean 0.00046014746868448
field stddev 0.00014839499058711
field sum 48.084490182591
field sqrsum 0.024427092529959
field min 9.4416e-006
field max 0.000835628815
statistic Basic.rack[3].node[6].app 	hops
field count 104498
field mean 5.4529177591916
field stddev 0.92211223225897
field sum 569819
field sqrsum 3196029
field min 3
field max 7
statistic Basic.rack[3].node[7].app 	throughput
field count 105013
field mean 52507
field stddev 30314.786246429
field sum 5513917591
field sqrsum 3.8602385662832e+014
field min 1
field max 105013
statistic Basic.rack[3].node[7].app 	"End-to-End Delay"
field count 105013
field mean 0.00046049804984535
field stddev 0.00014831017359976
field sum 48.35828170841
field sqrsum 0.024578728668771
field min 1.753011e-005
field max 0.000835627465
statistic Basic.rack[3].node[7].app 	hops
field count 105013
field mean 5.446658985078
field stddev 0.92463738505524
field sum 571970
field sqrsum 3205106
field min 3
field max 7
statistic Basic.rack[3].node[8].app 	throughput
field count 105494
field mean 52747.5
field stddev 30453.63898617
field sum 5564544765
field sqrsum 3.913525784742e+014
field min 1
field max 105494
statistic Basic.rack[3].node[8].app 	"End-to-End Delay"
field count 105494
field mean 0.00046098159354149
field stddev 0.00014899157610746
field sum 48.630792229066
field sqrsum 0.024759685376241
field min 1.910182e-005
field max 0.000835627203
statistic Basic.rack[3].node[8].app 	hops
field count 105494
field mean 5.4493241321781
field stddev 0.92570754469822
field sum 574871
field sqrsum 3223059
field min 3
field max 7
statistic Basic.rack[3].node[9].app 	throughput
field count 104258
field mean 52129.5
field stddev 30096.836519807
field sum 5434917411
field sqrsum 3.7775755792983e+014
field min 1
field max 104258
statistic Basic.rack[3].node[9].app 	"End-to-End Delay"
field count 104258
field mean 0.00046203423965123
field stddev 0.00015006072194399
field sum 48.170765757558
field sqrsum 0.024604225220937
field min 1.6404523e-005
field max 0.000835627356
statistic Basic.rack[3].node[9].app 	hops
field count 104258
field mean 5.4499031249401
field stddev 0.92240374239786
field sum 568196
field sqrsum 3185318
field min 3
field max 7
statistic Basic.rack[3].eps.queue[0] 	dropsum
field count 1949922
field mean 974961.5
field stddev 562894.14013856
field sum 1901098878003
field sqrsum 2.4713303179654e+018
field min 1
field max 1949922
statistic Basic.rack[3].eps.queue[1] 	dropsum
field count 0
field mean nan
field stddev nan
field sum 0
field sqrsum 0
field min nan
field max nan
statistic Basic.rack[3].eps.queue[2] 	dropsum
field count 0
field mean nan
field stddev nan
field sum 0
field sqrsum 0
field min nan
field max nan
statistic Basic.rack[3].eps.queue[3] 	dropsum
field count 0
field mean nan
field stddev nan
field sum 0
field sqrsum 0
field min nan
field max nan
statistic Basic.rack[4].node[0].app 	throughput
field count 121139
field mean 60570
field stddev 34969.96146695
field sum 7337389230
field sqrsum 5.9256510841839e+014
field min 1
field max 121139
statistic Basic.rack[4].node[0].app 	"End-to-End Delay"
field count 121139
field mean 0.00021191298408546
field stddev 0.00023700384583123
field sum 25.670926979128
field sqrsum 0.012244423889546
field min 8.496e-007
field max 0.00090135998
statistic Basic.rack[4].node[0].app 	hops
field count 121139
field mean 5.3041134564426
field stddev 0.84433004885199
field sum 642535
field sqrsum 3494437
field min 4
field max 7
statistic Basic.rack[4].node[1].app 	throughput
field count 120964
field mean 60482.5
field stddev 34919.443318396
field sum 7316205130
field sqrsum 5.9000073029859e+014
field min 1
field max 120964
statistic Basic.rack[4].node[1].app 	"End-to-End Delay"
field count 120964
field mean 0.00021248950184984
field stddev 0.0002380570898957
field sum 25.703580101763
field sqrsum 0.012316856641996
field min 8.496e-007
field max 0.000900977637
statistic Basic.rack[4].node[1].app 	hops
field count 120964
field mean 5.301469858801
field stddev 0.84285810409906
field sum 641287
field sqrsum 3485697
field min 4
field max 7
statistic Basic.rack[4].node[2].app 	throughput
field count 121205
field mean 60603
field stddev 34989.014025834
field sum 7345386615
field sqrsum 5.9353417157626e+014
field min 1
field max 121205
statistic Basic.rack[4].node[2].app 	"End-to-End Delay"
field count 121205
field mean 0.00021117959218396
field stddev 0.00023713374677118
field sum 25.596022470657
field sqrsum 0.012220951076098
field min 8.496e-007
field max 0.000901440059
statistic Basic.rack[4].node[2].app 	hops
field count 121205
field mean 5.2972072109236
field stddev 0.8445312900687
field sum 642048
field sqrsum 3487508
field min 4
field max 7
statistic Basic.rack[4].node[3].app 	throughput
field count 121368
field mean 60684.5
field stddev 35036.068072773
field sum 7365156396
field sqrsum 5.9593198936528e+014
field min 1
field max 121368
statistic Basic.rack[4].node[3].app 	"End-to-End Delay"
field count 121368
field mean 0.00021187751906862
field stddev 0.00023777597016166
field sum 25.71515073432
field sqrsum 0.012310238420607
field min 8.496e-007
field max 0.000883874315
statistic Basic.rack[4].node[3].app 	hops
field count 121368
field mean 5.3016363456595
field stddev 0.84586408283682
field sum 643449
field sqrsum 3498169
field min 4
field max 7
statistic Basic.rack[4].node[4].app 	throughput
field count 120952
field mean 60476.5
field stddev 34915.979216781
field sum 7314753628
field sqrsum 5.8982515879378e+014
field min 1
field max 120952
statistic Basic.rack[4].node[4].app 	"End-to-End Delay"
field count 120952
field mean 0.00021357655025937
field stddev 0.00023878227036774
field sum 25.832510906971
field sqrsum 0.012413478422068
field min 8.496e-007
field max 0.000896179122
statistic Basic.rack[4].node[4].app 	hops
field count 120952
field mean 5.3010450426616
field stddev 0.84403230835379
field sum 641172
field sqrsum 3485046
field min 4
field max 7
statistic Basic.rack[4].node[5].app 	throughput
field count 121258
field mean 60629.5
field stddev 35004.313807968
field sum 7351811911
field sqrsum 5.9431312307333e+014
field min 1
field max 121258
statistic Basic.rack[4].node[5].app 	"End-to-End Delay"
field count 121258
field mean 0.00021266934673053
field stddev 0.00023789559587245
field sum 25.78785964585
field sqrsum 0.012346744062094
field min 8.496e-007
field max 0.000913141234
statistic Basic.rack[4].node[5].app 	hops
field count 121258
field mean 5.2999637137344
field stddev 0.84654009437041
field sum 642663
field sqrsum 3492987
field min 4
field max 7
statistic Basic.rack[4].node[6].app 	throughput
field count 121739
field mean 60870
field stddev 35143.166547709
field sum 7410252930
field sqrsum 6.0141365771449e+014
field min 1
field max 121739
statistic Basic.rack[4].node[6].app 	"End-to-End Delay"
field count 121739
field mean 0.00021295768296807
field stddev 0.00023784945196643
field sum 25.925255366849
field sqrsum 0.012407988494177
field min 8.496e-007
field max 0.000909375516
statistic Basic.rack[4].node[6].app 	hops
field count 121739
field mean 5.300634964966
field stddev 0.84440721805048
field sum 645294
field sqrsum 3507270
field min 4
field max 7
statistic Basic.rack[4].node[7].app 	throughput
field count 121021
field mean 60511
field stddev 34935.897801068
field sum 7323101731
field sqrsum 5.9083517075881e+014
field min 1
field max 121021
statistic Basic.rack[4].node[7].app 	"End-to-End Delay"
field count 121021
field mean 0.00021163601556892
field stddev 0.0002374862662836
field sum 25.612402240166
field sqrsum 0.012246001681263
field min 8.496e-007
field max 0.000907452177
statistic Basic.rack[4].node[7].app 	hops
field count 121021
field mean 5.2943786615546
field stddev 0.84361594825461
field sum 640731
field sqrsum 3478401
field min 4
field max 7
statistic Basic.rack[4].node[8].app 	throughput
field count 121475
field mean 60738
field stddev 35066.956312175
field sum 7378148550
field sqrsum 5.9750952279035e+014
field min 1
field max 121475
statistic Basic.rack[4].node[8].app 	"End-to-End Delay"
field count 121475
field mean 0.00021275858596571
field stddev 0.00023786459295475
field sum 25.844849230184
field sqrsum 0.012371659604687
field min 8.496e-007
field max 0.000908150347
statistic Basic.rack[4].node[8].app 	hops
field count 121475
field mean 5.2999711874871
field stddev 0.8465324183675
field sum 643814
field sqrsum 3499246
field min 4
field max 7
statistic Basic.rack[4].node[9].app 	throughput
field count 121721
field mean 60861
field stddev 35137.970395286
field sum 7408061781
field sqrsum 6.0114692805066e+014
field min 1
field max 121721
statistic Basic.rack[4].node[9].app 	"End-to-End Delay"
field count 121721
field mean 0.00021183870505981
field stddev 0.00023750000582826
field sum 25.785219018585
field sqrsum 0.012328076493553
field min 8.496e-007
field max 0.000896717182
statistic Basic.rack[4].node[9].app 	hops
field count 121721
field mean 5.3026922223774
field stddev 0.84372774131727
field sum 645449
field sqrsum 3509267
field min 4
field max 7
statistic Basic.rack[4].eps.queue[0] 	dropsum
field count 112593
field mean 56297
field stddev 32502.943766681
field sum 6338648121
field sqrsum 4.7579371814121e+014
field min 1
field max 112593
statistic Basic.rack[4].eps.queue[1] 	dropsum
field count 0
field mean nan
field stddev nan
field sum 0
field sqrsum 0
field min nan
field max nan
statistic Basic.rack[4].eps.queue[2] 	dropsum
field count 0
field mean nan
field stddev nan
field sum 0
field sqrsum 0
field min nan
field max nan
statistic Basic.rack[4].eps.queue[3] 	dropsum
field count 0
field mean nan
field stddev nan
field sum 0
field sqrsum 0
field min nan
field max nan
statistic Basic.rack[5].node[0].app 	throughput
field count 122455
field mean 61228
field stddev 35349.85794408
field sum 7497674740
field sqrsum 6.1208767274938e+014
field min 1
field max 122455
statistic Basic.rack[5].node[0].app 	"End-to-End Delay"
field count 122455
field mean 0.00021941181126827
field stddev 0.00022965406508468
field sum 26.868073348856
field sqrsum 0.012353517780454
field min 9.4416e-006
field max 0.000832599602
statistic Basic.rack[5].node[0].app 	hops
field count 122455
field mean 5.8660079212772
field stddev 0.85052077064491
field sum 718322
field sqrsum 4302264
field min 4
field max 7
statistic Basic.rack[5].node[1].app 	throughput
field count 122449
field mean 61225
field stddev 35348.125893273
field sum 7496940025
field sqrsum 6.1199770506082e+014
field min 1
field max 122449
statistic Basic.rack[5].node[1].app 	"End-to-End Delay"
field count 122449
field mean 0.00021842004220075
field stddev 0.00022891093653641
field sum 26.74531574744
field sqrsum 0.012258014749033
field min 9.4416e-006
field max 0.000832620013
statistic Basic.rack[5].node[1].app 	hops
field count 122449
field mean 5.8651030224828
field stddev 0.8490150581918
field sum 718176
field sqrsum 4300440
field min 4
field max 7
statistic Basic.rack[5].node[2].app 	throughput
field count 122637
field mean 61319
field stddev 35402.396818577
field sum 7519978203
field sqrsum 6.1482088458028e+014
field min 1
field max 122637
statistic Basic.rack[5].node[2].app 	"End-to-End Delay"
field count 122637
field mean 0.00022093831723369
field stddev 0.00022983279134907
field sum 27.095212410588
field sqrsum 0.012464385795779
field min 9.4416e-006
field max 0.000832618339
statistic Basic.rack[5].node[2].app 	hops
field count 122637
field mean 5.8593654443602
field stddev 0.85026360792728
field sum 718575
field sqrsum 4299053
field min 4
field max 7
statistic Basic.rack[5].node[3].app 	throughput
field count 121921
field mean 60961
field stddev 35195.705422206
field sum 7432426081
field sqrsum 6.0411502428976e+014
field min 1
field max 121921
statistic Basic.rack[5].node[3].app 	"End-to-End Delay"
field count 121921
field mean 0.00021960550926531
field stddev 0.00022921853546931
field sum 26.774523295136
field sqrsum 0.012285648246933
field min 9.4416e-006
field max 0.000832619802
statistic Basic.rack[5].node[3].app 	hops
field count 121921
field mean 5.8655604858884
field stddev 0.85137010314426
field sum 715135
field sqrsum 4283039
field min 4
field max 7
statistic Basic.rack[5].node[4].app 	throughput
field count 121895
field mean 60948
field stddev 35188.199868706
field sum 7429256460
field sqrsum 6.0372862054662e+014
field min 1
field max 121895
statistic Basic.rack[5].node[4].app 	"End-to-End Delay"
field count 121895
field mean 0.00021924339956511
field stddev 0.00022880670044924
field sum 26.724674189989
field sqrsum 0.012240664808826
field min 9.4416e-006
field max 0.000832611802
statistic Basic.rack[5].node[4].app 	hops
field count 121895
field mean 5.8599532384429
field stddev 0.85131086544184
field sum 714299
field sqrsum 4274099
field min 4
field max 7
statistic Basic.rack[5].node[5].app 	throughput
field count 122113
field mean 61057
field stddev 35251.131048048
field sum 7455853441
field sqrsum 6.0697357277837e+014
field min 1
field max 122113
statistic Basic.rack[5].node[5].app 	"End-to-End Delay"
field count 122113
field mean 0.00022045197294393
field stddev 0.00022861519758954
field sum 26.920051772103
field sqrsum 0.012316751040079
field min 9.4416e-006
field max 0.000832618644
statistic Basic.rack[5].node[5].app 	hops
field count 122113
field mean 5.8580658897906
field stddev 0.85272253862059
field sum 715346
field sqrsum 4279336
field min 4
field max 7
statistic Basic.rack[5].node[6].app 	throughput
field count 122231
field mean 61116
field stddev 35285.194713931
field sum 7470269796
field sqrsum 6.0873485504652e+014
field min 1
field max 122231
statistic Basic.rack[5].node[6].app 	"End-to-End Delay"
field count 122231
field mean 0.00021802266864146
field stddev 0.00022855212152281
field sum 26.649128810714
field sqrsum 0.012194929291715
field min 9.4416e-006
field max 0.000832619894
statistic Basic.rack[5].node[6].app 	hops
field count 122231
field mean 5.861565396667
field stddev 0.85185259981535
field sum 716465
field sqrsum 4288303
field min 4
field max 7
statistic Basic.rack[5].node[7].app 	throughput
field count 121994
field mean 60997.5
field stddev 35216.778707031
field sum 7441329015
field sqrsum 6.0520080834694e+014
field min 1
field max 121994
statistic Basic.rack[5].node[7].app 	"End-to-End Delay"
field count 121994
field mean 0.00021880635441833
field stddev 0.00022896992944214
field sum 26.693062400909
field sqrsum 0.01223636656943
field min 9.4416e-006
field max 0.000832619618
statistic Basic.rack[5].node[7].app 	hops
field count 121994
field mean 5.8596488351886
field stddev 0.84826700992033
field sum 714842
field sqrsum 4276504
field min 4
field max 7
statistic Basic.rack[5].node[8].app 	throughput
field count 122555
field mean 61278
field stddev 35378.72545754
field sum 7509925290
field sqrsum 6.1358843258573e+014
field min 1
field max 122555
statistic Basic.rack[5].node[8].app 	"End-to-End Delay"
field count 122555
field mean 0.00021920421847776
field stddev 0.0002286882078303
field sum 26.864572995542
field sqrsum 0.01229819314531
field min 9.4416e-006
field max 0.000832617676
statistic Basic.rack[5].node[8].app 	hops
field count 122555
field mean 5.8603565745992
field stddev 0.85211349803266
field sum 718216
field sqrsum 4297988
field min 4
field max 7
statistic Basic.rack[5].node[9].app 	throughput
field count 122687
field mean 61344
field stddev 35416.830575307
field sum 7526111328
field sqrsum 6.15573189036e+014
field min 1
field max 122687
statistic Basic.rack[5].node[9].app 	"End-to-End Delay"
field count 122687
field mean 0.00021969858151832
field stddev 0.00022876822446428
field sum 26.954159870739
field sqrsum 0.012342550295373
field min 9.4416e-006
field max 0.000832605981
statistic Basic.rack[5].node[9].app 	hops
field count 122687
field mean 5.861550123485
field stddev 0.84972980492898
field sum 719136
field sqrsum 4303836
field min 4
field max 7
statistic Basic.rack[5].eps.queue[0] 	dropsum
field count 0
field mean nan
field stddev nan
field sum 0
field sqrsum 0
field min nan
field max nan
statistic Basic.rack[5].eps.queue[1] 	dropsum
field count 0
field mean nan
field stddev nan
field sum 0
field sqrsum 0
field min nan
field max nan
statistic Basic.rack[5].eps.queue[2] 	dropsum
field count 0
field mean nan
field stddev nan
field sum 0
field sqrsum 0
field min nan
field max nan
statistic Basic.rack[5].eps.queue[3] 	dropsum
field count 0
field mean nan
field stddev nan
field sum 0
field sqrsum 0
field min nan
field max nan
statistic Basic.rack[6].node[0].app 	throughput
field count 111467
field mean 55734
field stddev 32177.895565124
field sum 6212501778
field sqrsum 4.6166136129281e+014
field min 1
field max 111467
statistic Basic.rack[6].node[0].app 	"End-to-End Delay"
field count 111467
field mean 0.0002705035000139
field stddev 0.00026409884875766
field sum 30.15221363605
field sqrsum 0.01593083239639
field min 1.2992e-006
field max 0.00083613923
statistic Basic.rack[6].node[0].app 	hops
field count 111467
field mean 6.0145334493617
field stddev 1.4031399607738
field sum 670422
field sqrsum 4251730
field min 3
field max 8
statistic Basic.rack[6].node[1].app 	throughput
field count 110711
field mean 55356
field stddev 31959.657163368
field sum 6128518116
field sqrsum 4.5233162226636e+014
field min 1
field max 110711
statistic Basic.rack[6].node[1].app 	"End-to-End Delay"
field count 110711
field mean 0.00027167319904486
field stddev 0.0002644111136633
field sum 30.077211539456
field sqrsum 0.015911266748717
field min 1.2992e-006
field max 0.000836138995
statistic Basic.rack[6].node[1].app 	hops
field count 110711
field mean 6.015770790617
field stddev 1.4025875934723
field sum 666012
field sqrsum 4224370
field min 3
field max 8
statistic Basic.rack[6].node[2].app 	throughput
field count 111437
field mean 55719
field stddev 32169.235311086
field sum 6209158203
field sqrsum 4.6128871149788e+014
field min 1
field max 111437
statistic Basic.rack[6].node[2].app 	"End-to-End Delay"
field count 111437
field mean 0.00027169181932655
field stddev 0.0002644863190225
field sum 30.276521270293
field sqrsum 0.016021167097909
field min 1.2992e-006
field max 0.000836138428
statistic Basic.rack[6].node[2].app 	hops
field count 111437
field mean 6.0156411245816
field stddev 1.4008047711806
field sum 670365
field sqrsum 4251341
field min 3
field max 8
statistic Basic.rack[6].node[3].app 	throughput
field count 111959
field mean 55980
field stddev 32319.923731346
field sum 6267464820
field sqrsum 4.6780148500986e+014
field min 1
field max 111959
statistic Basic.rack[6].node[3].app 	"End-to-End Delay"
field count 111959
field mean 0.00027211288849326
field stddev 0.00026527497012305
field sum 30.465486882816
field sqrsum 0.01616862675569
field min 1.2992e-006
field max 0.000836139135
statistic Basic.rack[6].node[3].app 	hops
field count 111959
field mean 6.0122455541761
field stddev 1.4007734544854
field sum 673125
field sqrsum 4266673
field min 3
field max 8
statistic Basic.rack[6].node[4].app 	throughput
field count 110812
field mean 55406.5
field stddev 31988.813351962
field sum 6139705078
field sqrsum 4.5357071263725e+014
field min 1
field max 110812
statistic Basic.rack[6].node[4].app 	"End-to-End Delay"
field count 110812
field mean 0.00027121860090128
field stddev 0.00026485807528388
field sum 30.054275603073
field sqrsum 0.015924648072741
field min 1.2992e-006
field max 0.000836139377
statistic Basic.rack[6].node[4].app 	hops
field count 110812
field mean 6.0197541782478
field stddev 1.3965413198106
field sum 667061
field sqrsum 4231661
field min 3
field max 8
statistic Basic.rack[6].node[5].app 	throughput
field count 111235
field mean 55618
field stddev 32110.922933897
field sum 6186668230
field sqrsum 4.5878475593211e+014
field min 1
field max 111235
statistic Basic.rack[6].node[5].app 	"End-to-End Delay"
field count 111235
field mean 0.00027003743589517
field stddev 0.00026500429733483
field sum 30.037614181799
field sqrsum 0.015922941311279
field min 1.2992e-006
field max 0.000836138714
statistic Basic.rack[6].node[5].app 	hops
field count 111235
field mean 6.0245875848429
field stddev 1.4032618798506
field sum 670145
field sqrsum 4256383
field min 3
field max 8
statistic Basic.rack[6].node[6].app 	throughput
field count 111156
field mean 55578.5
field stddev 32088.117598264
field sum 6177883746
field sqrsum 4.5780795640817e+014
field min 1
field max 111156
statistic Basic.rack[6].node[6].app 	"End-to-End Delay"
field count 111156
field mean 0.00027068220641815
field stddev 0.00026423618938902
field sum 30.087951336616
field sqrsum 0.015905200052678
field min 1.2992e-006
field max 0.000836137937
statistic Basic.rack[6].node[6].app 	hops
field count 111156
field mean 6.016922163446
field stddev 1.4038418962716
field sum 668817
field sqrsum 4243281
field min 3
field max 8
statistic Basic.rack[6].node[7].app 	throughput
field count 111491
field mean 55746
field stddev 32184.823768354
field sum 6215177286
field sqrsum 4.6195962558805e+014
field min 1
field max 111491
statistic Basic.rack[6].node[7].app 	"End-to-End Delay"
field count 111491
field mean 0.00027140008603868
field stddev 0.00026535912109592
field sum 30.258666992538
field sqrsum 0.01606282481165
field min 1.2992e-006
field max 0.000836136886
statistic Basic.rack[6].node[7].app 	hops
field count 111491
field mean 6.0223157026128
field stddev 1.3980769134088
field sum 671434
field sqrsum 4261508
field min 3
field max 8
statistic Basic.rack[6].node[8].app 	throughput
field count 111816
field mean 55908.5
field stddev 32278.643187098
field sum 6251464836
field sqrsum 4.660112785564e+014
field min 1
field max 111816
statistic Basic.rack[6].node[8].app 	"End-to-End Delay"
field count 111816
field mean 0.00027206304640568
field stddev 0.00026579618205809
field sum 30.421001596897
field sqrsum 0.016175892925666
field min 1.2992e-006
field max 0.00083613937
statistic Basic.rack[6].node[8].app 	hops
field count 111816
field mean 6.0248622737354
field stddev 1.3981381723742
field sum 673676
field sqrsum 4277380
field min 3
field max 8
statistic Basic.rack[6].node[9].app 	throughput
field count 111067
field mean 55534
field stddev 32062.425511284
field sum 6167994778
field sqrsum 4.5670917333701e+014
field min 1
field max 111067
statistic Basic.rack[6].node[9].app 	"End-to-End Delay"
field count 111067
field mean 0.00027142563470454
field stddev 0.0002648895494031
field sum 30.14643096973
field sqrsum 0.01597562369279
field min 1.2992e-006
field max 0.00083613846
statistic Basic.rack[6].node[9].app 	hops
field count 111067
field mean 6.0164855447613
field stddev 1.4044159364881
field sum 668233
field sqrsum 4239479
field min 3
field max 8
statistic Basic.rack[6].eps.queue[0] 	dropsum
field count 0
field mean nan
field stddev nan
field sum 0
field sqrsum 0
field min nan
field max nan
statistic Basic.rack[6].eps.queue[1] 	dropsum
field count 1344198
field mean 672099.5
field stddev 388036.68291009
field sum 903434803701
field sqrsum 8.0959713865561e+017
field min 1
field max 1344198
statistic Basic.rack[6].eps.queue[2] 	dropsum
field count 0
field mean nan
field stddev nan
field sum 0
field sqrsum 0
field min nan
field max nan
statistic Basic.rack[6].eps.queue[3] 	dropsum
field count 0
field mean nan
field stddev nan
field sum 0
field sqrsum 0
field min nan
field max nan
statistic Basic.rack[7].node[0].app 	throughput
field count 108122
field mean 54061.5
field stddev 31212.277239894
field sum 5845237503
field sqrsum 4.2133446127874e+014
field min 1
field max 108122
statistic Basic.rack[7].node[0].app 	"End-to-End Delay"
field count 108122
field mean 0.00024253955563711
field stddev 0.00023223844689037
field sum 26.223861834596
field sqrsum 0.012191797085812
field min 1.2992e-006
field max 0.000831402109
statistic Basic.rack[7].node[0].app 	hops
field count 108122
field mean 6.0115610144096
field stddev 1.4375438747333
field sum 649982
field sqrsum 4130842
field min 3
field max 8
statistic Basic.rack[7].node[1].app 	throughput
field count 108118
field mean 54059.5
field stddev 31211.122539356
field sum 5844805021
field sqrsum 4.2128770110866e+014
field min 1
field max 108118
statistic Basic.rack[7].node[1].app 	"End-to-End Delay"
field count 108118
field mean 0.00024369706735022
field stddev 0.00023202991022172
field sum 26.348039527771
field sqrsum 0.012241729952866
field min 1.2992e-006
field max 0.000831402534
statistic Basic.rack[7].node[1].app 	hops
field count 108118
field mean 6.0029689783385
field stddev 1.4447793072854
field sum 649029
field sqrsum 4121783
field min 3
field max 8
statistic Basic.rack[7].node[2].app 	throughput
field count 108404
field mean 54202.5
field stddev 31293.683627851
field sum 5875767810
field sqrsum 4.2463978103943e+014
field min 1
field max 108404
statistic Basic.rack[7].node[2].app 	"End-to-End Delay"
field count 108404
field mean 0.00024345117159202
field stddev 0.00023198065355149
field sum 26.391080805261
field sqrsum 0.012258649547335
field min 1.2992e-006
field max 0.00083140265
statistic Basic.rack[7].node[2].app 	hops
field count 108404
field mean 6.0067340688535
field stddev 1.4447539090878
field sum 651154
field sqrsum 4137580
field min 3
field max 8
statistic Basic.rack[7].node[3].app 	throughput
field count 108447
field mean 54224
field stddev 31306.096658638
field sum 5880430128
field sqrsum 4.2514529753752e+014
field min 1
field max 108447
statistic Basic.rack[7].node[3].app 	"End-to-End Delay"
field count 108447
field mean 0.0002428016348001
field stddev 0.00023168562679178
field sum 26.331108889167
field sqrsum 0.012214425578304
field min 1.2992e-006
field max 0.000831400186
statistic Basic.rack[7].node[3].app 	hops
field count 108447
field mean 6.0126144568314
field stddev 1.4396513390173
field sum 652050
field sqrsum 4145290
field min 3
field max 8
statistic Basic.rack[7].node[4].app 	throughput
field count 108393
field mean 54197
field stddev 31290.50820137
field sum 5874575421
field sqrsum 4.2451052726411e+014
field min 1
field max 108393
statistic Basic.rack[7].node[4].app 	"End-to-End Delay"
field count 108393
field mean 0.00024413649287111
field stddev 0.00023306001320484
field sum 26.462686871778
field sqrsum 0.012348032550511
field min 1.2992e-006
field max 0.000831401344
statistic Basic.rack[7].node[4].app 	hops
field count 108393
field mean 6.0115874641351
field stddev 1.4427004750545
field sum 651614
field sqrsum 4142840
field min 3
field max 8
statistic Basic.rack[7].node[5].app 	throughput
field count 108926
field mean 54463.5
field stddev 31444.372048111
field sum 5932491201
field sqrsum 4.3080366853715e+014
field min 1
field max 108926
statistic Basic.rack[7].node[5].app 	"End-to-End Delay"
field count 108926
field mean 0.00024407757661606
field stddev 0.00023181334108449
field sum 26.586394110481
field sqrsum 0.012342491674981
field min 1.2992e-006
field max 0.000831387101
statistic Basic.rack[7].node[5].app 	hops
field count 108926
field mean 5.9972641977122
field stddev 1.4453845238118
field sum 653258
field sqrsum 4145320
field min 3
field max 8
statistic Basic.rack[7].node[6].app 	throughput
field count 107887
field mean 53944
field stddev 31144.438583263
field sum 5819856328
field sqrsum 4.185931663914e+014
field min 1
field max 107887
statistic Basic.rack[7].node[6].app 	"End-to-End Delay"
field count 107887
field mean 0.00024419914583097
field stddev 0.00023218390276075
field sum 26.345913246266
field sqrsum 0.01224971523103
field min 1.2992e-006
field max 0.000831402195
statistic Basic.rack[7].node[6].app 	hops
field count 107887
field mean 6.0123091753409
field stddev 1.443905865173
field sum 648650
field sqrsum 4124812
field min 3
field max 8
statistic Basic.rack[7].node[7].app 	throughput
field count 107894
field mean 53947.5
field stddev 31146.459309206
field sum 5820611565
field sqrsum 4.186746496666e+014
field min 1
field max 107894
statistic Basic.rack[7].node[7].app 	"End-to-End Delay"
field count 107894
field mean 0.00024336387802238
field stddev 0.00023251942912017
field sum 26.257502255347
field sqrsum 0.01222339336174
field min 1.2992e-006
field max 0.000831401168
statistic Basic.rack[7].node[7].app 	hops
field count 107894
field mean 6.0125122805717
field stddev 1.4366497563168
field sum 648714
field sqrsum 4123088
field min 3
field max 8
statistic Basic.rack[7].node[8].app 	throughput
field count 108505
field mean 54253
field stddev 31322.839816445
field sum 5886721765
field sqrsum 4.258277923148e+014
field min 1
field max 108505
statistic Basic.rack[7].node[8].app 	"End-to-End Delay"
field count 108505
field mean 0.00024348774689072
field stddev 0.00023274366533842
field sum 26.419637976377
field sqrsum 0.012310477895427
field min 1.2992e-006
field max 0.000831402406
statistic Basic.rack[7].node[8].app 	hops
field count 108505
field mean 6.0032625224644
field stddev 1.4449546530006
field sum 651384
field sqrsum 4136974
field min 3
field max 8
statistic Basic.rack[7].node[9].app 	throughput
field count 108400
field mean 54200.5
field stddev 31292.528927312
field sum 5875334200
field sqrsum 4.245927766314e+014
field min 1
field max 108400
statistic Basic.rack[7].node[9].app 	"End-to-End Delay"
field count 108400
field mean 0.00024298308734025
field stddev 0.00023207729760319
field sum 26.339366667683
field sqrsum 0.012238376903236
field min 1.2992e-006
field max 0.000831402283
statistic Basic.rack[7].node[9].app 	hops
field count 108400
field mean 6.0083025830258
field stddev 1.4441337410261
field sum 651300
field sqrsum 4139276
field min 3
field max 8
statistic Basic.rack[7].eps.queue[0] 	dropsum
field count 1353007
field mean 676504
field stddev 390579.62217075
field sum 915314647528
field sqrsum 8.25618388644e+017
field min 1
field max 1353007
statistic Basic.rack[7].eps.queue[1] 	dropsum
field count 0
field mean nan
field stddev nan
field sum 0
field sqrsum 0
field min nan
field max nan
statistic Basic.rack[7].eps.queue[2] 	dropsum
field count 0
field mean nan
field stddev nan
field sum 0
field sqrsum 0
field min nan
field max nan
statistic Basic.rack[7].eps.queue[3] 	dropsum
field count 0
field mean nan
field stddev nan
field sum 0
field sqrsum 0
field min nan
field max nan
statistic Basic.rack[8].node[0].app 	throughput
field count 123629
field mean 61815
field stddev 35688.762552098
field sum 7642126635
field sqrsum 6.2986152988116e+014
field min 1
field max 123629
statistic Basic.rack[8].node[0].app 	"End-to-End Delay"
field count 123629
field mean 0.00021351234506905
field stddev 0.00021558354101335
field sum 26.396317708541
field sqrsum 0.01138170715657
field min 9.4416e-006
field max 0.000829885267
statistic Basic.rack[8].node[0].app 	hops
field count 123629
field mean 5.8590783715795
field stddev 0.86611816205307
field sum 724352
field sqrsum 4336776
field min 4
field max 7
statistic Basic.rack[8].node[1].app 	throughput
field count 123409
field mean 61705
field stddev 35625.254022486
field sum 7614952345
field sqrsum 6.2650497428018e+014
field min 1
field max 123409
statistic Basic.rack[8].node[1].app 	"End-to-End Delay"
field count 123409
field mean 0.00021349375962764
field stddev 0.00021539943459229
field sum 26.347051381887
field sqrsum 0.011350681716512
field min 9.4416e-006
field max 0.000829870827
statistic Basic.rack[8].node[1].app 	hops
field count 123409
field mean 5.8598967660381
field stddev 0.86451584704161
field sum 723164
field sqrsum 4329900
field min 4
field max 7
statistic Basic.rack[8].node[2].app 	throughput
field count 122635
field mean 61318
field stddev 35401.819468308
field sum 7519732930
field sqrsum 6.1479080515801e+014
field min 1
field max 122635
statistic Basic.rack[8].node[2].app 	"End-to-End Delay"
field count 122635
field mean 0.00021436630297066
field stddev 0.00021599506398084
field sum 26.288811564807
field sqrsum 0.011356785751757
field min 9.4416e-006
field max 0.000829892298
statistic Basic.rack[8].node[2].app 	hops
field count 122635
field mean 5.859436539324
field stddev 0.86713325376737
field sum 718572
field sqrsum 4302638
field min 4
field max 7
statistic Basic.rack[8].node[3].app 	throughput
field count 123143
field mean 61572
field stddev 35548.466436683
field sum 7582160796
field sqrsum 6.2246254532148e+014
field min 1
field max 123143
statistic Basic.rack[8].node[3].app 	"End-to-End Delay"
field count 123143
field mean 0.00021336657482237
field stddev 0.0002152621967873
field sum 26.274600123351
field sqrsum 0.011312252446625
field min 9.4416e-006
field max 0.000829901042
statistic Basic.rack[8].node[3].app 	hops
field count 123143
field mean 5.8612263790877
field stddev 0.86866100293765
field sum 721769
field sqrsum 4323371
field min 4
field max 7
statistic Basic.rack[8].node[4].app 	throughput
field count 123125
field mean 61563
field stddev 35543.270284261
field sum 7579944375
field sqrsum 6.2218962742938e+014
field min 1
field max 123125
statistic Basic.rack[8].node[4].app 	"End-to-End Delay"
field count 123125
field mean 0.00021333092913707
field stddev 0.00021565497039964
field sum 26.266370650001
field sqrsum 0.011329565281782
field min 9.4416e-006
field max 0.000829888827
statistic Basic.rack[8].node[4].app 	hops
field count 123125
field mean 5.8634558375635
field stddev 0.86464296037287
field sum 721938
field sqrsum 4325100
field min 4
field max 7
statistic Basic.rack[8].node[5].app 	throughput
field count 123649
field mean 61825
field stddev 35694.536054789
field sum 7644599425
field sqrsum 6.3016726440102e+014
field min 1
field max 123649
statistic Basic.rack[8].node[5].app 	"End-to-End Delay"
field count 123649
field mean 0.00021275144758779
field stddev 0.00021538939056122
field sum 26.306503742783
field sqrsum 0.011333097666949
field min 9.4416e-006
field max 0.000829884404
statistic Basic.rack[8].node[5].app 	hops
field count 123649
field mean 5.862166293298
field stddev 0.86542705970555
field sum 724851
field sqrsum 4341805
field min 4
field max 7
statistic Basic.rack[8].node[6].app 	throughput
field count 123412
field mean 61706.5
field stddev 35626.12004789
field sum 7615322578
field sqrsum 6.2655066510495e+014
field min 1
field max 123412
statistic Basic.rack[8].node[6].app 	"End-to-End Delay"
field count 123412
field mean 0.00021410226902469
field stddev 0.00021502392443793
field sum 26.422789224875
field sqrsum 0.011363122264333
field min 9.4416e-006
field max 0.000829781345
statistic Basic.rack[8].node[6].app 	hops
field count 123412
field mean 5.8603134217094
field stddev 0.86655245231363
field sum 723233
field sqrsum 4331043
field min 4
field max 7
statistic Basic.rack[8].node[7].app 	throughput
field count 123353
field mean 61677
field stddev 35609.088214949
field sum 7608042981
field sqrsum 6.2565248657119e+014
field min 1
field max 123353
statistic Basic.rack[8].node[7].app 	"End-to-End Delay"
field count 123353
field mean 0.00021357317955104
field stddev 0.00021478266012874
field sum 26.344892417159
field sqrsum 0.01131698646284
field min 9.4416e-006
field max 0.000829908218
statistic Basic.rack[8].node[7].app 	hops
field count 123353
field mean 5.8561526675476
field stddev 0.86670649153098
field sum 722374
field sqrsum 4322992
field min 4
field max 7
statistic Basic.rack[8].node[8].app 	throughput
field count 123260
field mean 61630.5
field stddev 35582.241427431
field sum 7596575430
field sqrsum 6.2423845719301e+014
field min 1
field max 123260
statistic Basic.rack[8].node[8].app 	"End-to-End Delay"
field count 123260
field mean 0.00021335792020175
field stddev 0.00021554989428064
field sum 26.298497244067
field sqrsum 0.011337822373169
field min 9.4416e-006
field max 0.00082985768
statistic Basic.rack[8].node[8].app 	hops
field count 123260
field mean 5.86784845043
field stddev 0.86614780510664
field sum 723271
field sqrsum 4336515
field min 4
field max 7
statistic Basic.rack[8].node[9].app 	throughput
field count 123799
field mean 61900
field stddev 35737.837324979
field sum 7663158100
field sqrsum 6.324634274673e+014
field min 1
field max 123799
statistic Basic.rack[8].node[9].app 	"End-to-End Delay"
field count 123799
field mean 0.00021420961683968
field stddev 0.00021542343683355
field sum 26.518936355136
field sqrsum 0.011425736814698
field min 9.4416e-006
field max 0.000829900152
statistic Basic.rack[8].node[9].app 	hops
field count 123799
field mean 5.8601684989378
field stddev 0.86830701150559
field sum 725483
field sqrsum 4344791
field min 4
field max 7
statistic Basic.rack[8].eps.queue[0] 	dropsum
field count 0
field mean nan
field stddev nan
field sum 0
field sqrsum 0
field min nan
field max nan
statistic Basic.rack[8].eps.queue[1] 	dropsum
field count 0
field mean nan
field stddev nan
field sum 0
field sqrsum 0
field min nan
field max nan
statistic Basic.rack[8].eps.queue[2] 	dropsum
field count 0
field mean nan
field stddev nan
field sum 0
field sqrsum 0
field min nan
field max nan
statistic Basic.rack[8].eps.queue[3] 	dropsum
field count 0
field mean nan
field stddev nan
field sum 0
field sqrsum 0
field min nan
field max nan
statistic Basic.rack[9].node[0].app 	throughput
field count 122893
field mean 61447
field stddev 35476.297653034
field sum 7551406171
field sqrsum 6.1867915618386e+014
field min 1
field max 122893
statistic Basic.rack[9].node[0].app 	"End-to-End Delay"
field count 122893
field mean 0.00020721054222764
field stddev 0.00022392216355652
field sum 25.464725165982
field sqrsum 0.011438503912521
field min 8.496e-007
field max 0.000875714827
statistic Basic.rack[9].node[0].app 	hops
field count 122893
field mean 5.3110103911533
field stddev 0.85446090555103
field sum 652686
field sqrsum 3556146
field min 4
field max 7
statistic Basic.rack[9].node[1].app 	throughput
field count 122519
field mean 61260
field stddev 35368.333152695
field sum 7505513940
field sqrsum 6.1304787678122e+014
field min 1
field max 122519
statistic Basic.rack[9].node[1].app 	"End-to-End Delay"
field count 122519
field mean 0.00020726581164126
field stddev 0.00022447198276587
field sum 25.393999976476
field sqrsum 0.011436704697259
field min 8.496e-007
field max 0.000901055842
statistic Basic.rack[9].node[1].app 	hops
field count 122519
field mean 5.3135595295424
field stddev 0.85354420697649
field sum 651012
field sqrsum 3548450
field min 4
field max 7
statistic Basic.rack[9].node[2].app 	throughput
field count 122655
field mean 61328
field stddev 35407.592971
field sum 7522185840
field sqrsum 6.1509164353208e+014
field min 1
field max 122655
statistic Basic.rack[9].node[2].app 	"End-to-End Delay"
field count 122655
field mean 0.00020691660382057
field stddev 0.00022379820228727
field sum 25.379356041612
field sqrsum 0.011394613677136
field min 8.496e-007
field max 0.000885865172
statistic Basic.rack[9].node[2].app 	hops
field count 122655
field mean 5.3108719579308
field stddev 0.85676852868177
field sum 651405
field sqrsum 3549563
field min 4
field max 7
statistic Basic.rack[9].node[3].app 	throughput
field count 122004
field mean 61002.5
field stddev 35219.665458377
field sum 7442549010
field sqrsum 6.0534964712703e+014
field min 1
field max 122004
statistic Basic.rack[9].node[3].app 	"End-to-End Delay"
field count 122004
field mean 0.00020667869197149
field stddev 0.0002240348552212
field sum 25.21562713529
field sqrsum 0.011335060603598
field min 8.496e-007
field max 0.000889444133
statistic Basic.rack[9].node[3].app 	hops
field count 122004
field mean 5.3131536670929
field stddev 0.85474307921025
field sum 648226
field sqrsum 3533258
field min 4
field max 7
statistic Basic.rack[9].node[4].app 	throughput
field count 123048
field mean 61524.5
field stddev 35521.042298897
field sum 7570466676
field sqrsum 6.2102304585452e+014
field min 1
field max 123048
statistic Basic.rack[9].node[4].app 	"End-to-End Delay"
field count 123048
field mean 0.00020736553207484
field stddev 0.00022427661144405
field sum 25.515913990745
field sqrsum 0.011480384989215
field min 8.496e-007
field max 0.000896214058
statistic Basic.rack[9].node[4].app 	hops
field count 123048
field mean 5.3168519602106
field stddev 0.8536117864433
field sum 654228
field sqrsum 3568092
field min 4
field max 7
statistic Basic.rack[9].node[5].app 	throughput
field count 122384
field mean 61192.5
field stddev 35329.362009524
field sum 7488982920
field sqrsum 6.1102362011516e+014
field min 1
field max 122384
statistic Basic.rack[9].node[5].app 	"End-to-End Delay"
field count 122384
field mean 0.00020598992600202
field stddev 0.00022336185440717
field sum 25.209871103831
field sqrsum 0.011298730748108
field min 8.496e-007
field max 0.000909988424
statistic Basic.rack[9].node[5].app 	hops
field count 122384
field mean 5.3135704013597
field stddev 0.85531240129195
field sum 650296
field sqrsum 3544924
field min 4
field max 7
statistic Basic.rack[9].node[6].app 	throughput
field count 122305
field mean 61153
field stddev 35306.556673891
field sum 7479317665
field sqrsum 6.098411244511e+014
field min 1
field max 122305
statistic Basic.rack[9].node[6].app 	"End-to-End Delay"
field count 122305
field mean 0.000205890986009
field stddev 0.00022409435537059
field sum 25.181497043831
field sqrsum 0.011326539785983
field min 8.496e-007
field max 0.000890029461
statistic Basic.rack[9].node[6].app 	hops
field count 122305
field mean 5.3128408486979
field stddev 0.85610286537129
field sum 649787
field sqrsum 3541853
field min 4
field max 7
statistic Basic.rack[9].node[7].app 	throughput
field count 123031
field mean 61516
field stddev 35516.134821608
field sum 7568374996
field sqrsum 6.2076568554692e+014
field min 1
field max 123031
statistic Basic.rack[9].node[7].app 	"End-to-End Delay"
field count 123031
field mean 0.00020615522070484
field stddev 0.00022403266251261
field sum 25.363482958537
field sqrsum 0.011403768112493
field min 8.496e-007
field max 0.000899907662
statistic Basic.rack[9].node[7].app 	hops
field count 123031
field mean 5.3141403386138
field stddev 0.85463764911283
field sum 653804
field sqrsum 3564268
field min 4
field max 7
statistic Basic.rack[9].node[8].app 	throughput
field count 122424
field mean 61212.5
field stddev 35340.909014908
field sum 7493879100
field sqrsum 6.116229345853e+014
field min 1
field max 122424
statistic Basic.rack[9].node[8].app 	"End-to-End Delay"
field count 122424
field mean 0.00020632706009911
field stddev 0.00022383245441077
field sum 25.259384005574
field sqrsum 0.0113452052041
field min 8.496e-007
field max 0.000885641497
statistic Basic.rack[9].node[8].app 	hops
field count 122424
field mean 5.3152486440567
field stddev 0.85543467888359
field sum 650714
field sqrsum 3548292
field min 4
field max 7
statistic Basic.rack[9].node[9].app 	throughput
field count 122276
field mean 61138.5
field stddev 35298.185094988
field sum 7475771226
field sqrsum 6.0940742687733e+014
field min 1
field max 122276
statistic Basic.rack[9].node[9].app 	"End-to-End Delay"
field count 122276
field mean 0.00020684590421805
field stddev 0.00022384126423124
field sum 25.292289784166
field sqrsum 0.011358184612695
field min 8.496e-007
field max 0.000883359093
statistic Basic.rack[9].node[9].app 	hops
field count 122276
field mean 5.3155238967582
field stddev 0.85619334371693
field sum 649961
field sqrsum 3544519
field min 4
field max 7
statistic Basic.rack[9].eps.queue[0] 	dropsum
field count 0
field mean nan
field stddev nan
field sum 0
field sqrsum 0
field min nan
field max nan
statistic Basic.rack[9].eps.queue[1] 	dropsum
field count 111241
field mean 55621
field stddev 32112.654984704
field sum 6187335661
field sqrsum 4.5885899995542e+014
field min 1
field max 111241
statistic Basic.rack[9].eps.queue[2] 	dropsum
field count 0
field mean nan
field stddev nan
field sum 0
field sqrsum 0
field min nan
field max nan
statistic Basic.rack[9].eps.queue[3] 	dropsum
field count 0
field mean nan
field stddev nan
field sum 0
field sqrsum 0
field min nan
field max nan
statistic Basic.rack[10].node[0].app 	throughput
field count 104139
field mean 52070
field stddev 30062.48417879
field sum 5422517730
field sqrsum 3.7646552342889e+014
field min 1
field max 104139
statistic Basic.rack[10].node[0].app 	"End-to-End Delay"
field count 104139
field mean 0.00044609436466812
field stddev 0.00013496011061934
field sum 46.455821042173
field sqrsum 0.022620473608557
field min 9.4416e-006
field max 0.000836240345
statistic Basic.rack[10].node[0].app 	hops
field count 104139
field mean 5.4510702042462
field stddev 0.93376360061151
field sum 567669
field sqrsum 3185203
field min 3
field max 7
statistic Basic.rack[10].node[1].app 	throughput
field count 103636
field mean 51818.5
field stddev 29917.280586087
field sum 5370262066
field sqrsum 3.7103677640201e+014
field min 1
field max 103636
statistic Basic.rack[10].node[1].app 	"End-to-End Delay"
field count 103636
field mean 0.00044583948064866
field stddev 0.00013402585672103
field sum 46.205020416505
field sqrsum 0.022461610584367
field min 2.5062163e-005
field max 0.000836238231
statistic Basic.rack[10].node[1].app 	hops
field count 103636
field mean 5.4474796402794
field stddev 0.93504552997064
field sum 564555
field sqrsum 3166011
field min 3
field max 7
statistic Basic.rack[10].node[2].app 	throughput
field count 103681
field mean 51841
field stddev 29930.270967144
field sum 5374926721
field sqrsum 3.7152030988224e+014
field min 1
field max 103681
statistic Basic.rack[10].node[2].app 	"End-to-End Delay"
field count 103681
field mean 0.00044609347174204
field stddev 0.00013455921249816
field sum 46.251417243686
field sqrsum 0.022509704206577
field min 2.3195776e-005
field max 0.00083624037
statistic Basic.rack[10].node[2].app 	hops
field count 103681
field mean 5.445337139881
field stddev 0.93292840215744
field sum 564578
field sqrsum 3164556
field min 3
field max 7
statistic Basic.rack[10].node[3].app 	throughput
field count 103428
field mean 51714.5
field stddev 29857.236158091
field sum 5348727306
field sqrsum 3.6880722811241e+014
field min 1
field max 103428
statistic Basic.rack[10].node[3].app 	"End-to-End Delay"
field count 103428
field mean 0.00044694816653569
field stddev 0.0001353572573733
field sum 46.226954968454
field sqrsum 0.022555999559113
field min 1.4937218e-005
field max 0.000836239457
statistic Basic.rack[10].node[3].app 	hops
field count 103428
field mean 5.4463104768535
field stddev 0.93270355253278
field sum 563301
field sqrsum 3157887
field min 3
field max 7
statistic Basic.rack[10].node[4].app 	throughput
field count 104098
field mean 52049.5
field stddev 30050.648498271
field sum 5418248851
field sqrsum 3.7602105201055e+014
field min 1
field max 104098
statistic Basic.rack[10].node[4].app 	"End-to-End Delay"
field count 104098
field mean 0.00044565173285234
field stddev 0.0001341614514142
field sum 46.391454086462
field sqrsum 0.02254810451953
field min 2.5886271e-005
field max 0.000836239586
statistic Basic.rack[10].node[4].app 	hops
field count 104098
field mean 5.4466848546562
field stddev 0.93237845142247
field sum 566989
field sqrsum 3178705
field min 3
field max 7
statistic Basic.rack[10].node[5].app 	throughput
field count 103527
field mean 51764
field stddev 29885.814996416
field sum 5358971628
field sqrsum 3.6986729014518e+014
field min 1
field max 103527
statistic Basic.rack[10].node[5].app 	"End-to-End Delay"
field count 103527
field mean 0.00044549050185108
field stddev 0.00013419669737607
field sum 46.120295185137
field sqrsum 0.022410527671358
field min 9.4416e-006
field max 0.000836240316
statistic Basic.rack[10].node[5].app 	hops
field count 103527
field mean 5.4422614390449
field stddev 0.93627809629805
field sum 563421
field sqrsum 3157037
field min 3
field max 7
statistic Basic.rack[10].node[6].app 	throughput
field count 103902
field mean 51951.5
field stddev 29994.06817189
field sum 5397864753
field sqrsum 3.7390109499906e+014
field min 1
field max 103902
statistic Basic.rack[10].node[6].app 	"End-to-End Delay"
field count 103902
field mean 0.0004453257480089
field stddev 0.00013364471152383
field sum 46.270235869621
field sqrsum 0.022461093696706
field min 9.4416e-006
field max 0.000836240119
statistic Basic.rack[10].node[6].app 	hops
field count 103902
field mean 5.4486150410964
field stddev 0.93668819619838
field sum 566122
field sqrsum 3175742
field min 3
field max 7
statistic Basic.rack[10].node[7].app 	throughput
field count 103027
field mean 51514
field stddev 29741.477429117
field sum 5307332878
field sqrsum 3.6453415872543e+014
field min 1
field max 103027
statistic Basic.rack[10].node[7].app 	"End-to-End Delay"
field count 103027
field mean 0.00044645866090686
field stddev 0.00013533813144604
field sum 45.997296457251
field sqrsum 0.022422957820096
field min 1.80336e-005
field max 0.000836239643
statistic Basic.rack[10].node[7].app 	hops
field count 103027
field mean 5.4439807040873
field stddev 0.93616988681137
field sum 560877
field sqrsum 3143697
field min 3
field max 7
statistic Basic.rack[10].node[8].app 	throughput
field count 103326
field mean 51663.5
field stddev 29827.791294362
field sum 5338182801
field sqrsum 3.6771716345835e+014
field min 1
field max 103326
statistic Basic.rack[10].node[8].app 	"End-to-End Delay"
field count 103326
field mean 0.00044635144758138
field stddev 0.00013525066105853
field sum 46.119709672793
field sqrsum 0.022475696671039
field min 9.4416e-006
field max 0.000836240134
statistic Basic.rack[10].node[8].app 	hops
field count 103326
field mean 5.4473220680177
field stddev 0.93499728746691
field sum 562850
field sqrsum 3156354
field min 3
field max 7
statistic Basic.rack[10].node[9].app 	throughput
field count 104252
field mean 52126.5
field stddev 30095.104469
field sum 5434291878
field sqrsum 3.7769234267413e+014
field min 1
field max 104252
statistic Basic.rack[10].node[9].app 	"End-to-End Delay"
field count 104252
field mean 0.00044549411048675
field stddev 0.00013426697481235
field sum 46.443652006465
field sqrsum 0.022569770905755
field min 9.4416e-006
field max 0.000836238706
statistic Basic.rack[10].node[9].app 	hops
field count 104252
field mean 5.4494206346161
field stddev 0.93086395752593
field sum 568113
field sqrsum 3186221
field min 3
field max 7
statistic Basic.rack[10].eps.queue[0] 	dropsum
field count 0
field mean nan
field stddev nan
field sum 0
field sqrsum 0
field min nan
field max nan
statistic Basic.rack[10].eps.queue[1] 	dropsum
field count 1950782
field mean 975391.5
field stddev 563142.40075431
field sum 1902776181153
field sqrsum 2.4746016504103e+018
field min 1
field max 1950782
statistic Basic.rack[10].eps.queue[2] 	dropsum
field count 0
field mean nan
field stddev nan
field sum 0
field sqrsum 0
field min nan
field max nan
statistic Basic.rack[10].eps.queue[3] 	dropsum
field count 0
field mean nan
field stddev nan
field sum 0
field sqrsum 0
field min nan
field max nan
statistic Basic.rack[11].node[0].app 	throughput
field count 106501
field mean 53251
field stddev 30744.334846711
field sum 5671284751
field sqrsum 4.0266688860575e+014
field min 1
field max 106501
statistic Basic.rack[11].node[0].app 	"End-to-End Delay"
field count 106501
field mean 0.00046398799779697
field stddev 0.00015173237704802
field sum 49.415185753375
field sqrsum 0.025379972165528
field min 2.8044984e-005
field max 0.000836690852
statistic Basic.rack[11].node[0].app 	hops
field count 106501
field mean 5.453986347546
field stddev 0.92484618742058
field sum 580855
field sqrsum 3259069
field min 3
field max 7
statistic Basic.rack[11].node[1].app 	throughput
field count 106115
field mean 53058
field stddev 30632.906244756
field sum 5630249670
field sqrsum 3.9830450590459e+014
field min 1
field max 106115
statistic Basic.rack[11].node[1].app 	"End-to-End Delay"
field count 106115
field mean 0.00046485145175522
field stddev 0.00015290041688819
field sum 49.327711803006
field sqrsum 0.02541084857003
field min 4.3460941e-005
field max 0.000836418803
statistic Basic.rack[11].node[1].app 	hops
field count 106115
field mean 5.4582104320784
field stddev 0.92119024080846
field sum 579198
field sqrsum 3251432
field min 3
field max 7
[...]
field stddev 35690.494602905
field sum 7642868430
field sqrsum 6.2995323985151e+014
field min 1
field max 123635
statistic Basic.rack[13].node[2].app 	"End-to-End Delay"
field count 123635
field mean 0.00022010086413562
field stddev 0.00022928816803528
field sum 27.212170337408
field sqrsum 0.012489240400966
field min 9.4416e-006
field max 0.000836789457
statistic Basic.rack[13].node[2].app 	hops
field count 123635
field mean 5.855332227929
field stddev 0.8509173337554
field sum 723924
field sqrsum 4328334
field min 4
field max 7
statistic Basic.rack[13].node[3].app 	throughput
field count 123060
field mean 61530.5
field stddev 35524.506400512
field sum 7571943330
field sqrsum 6.2120475477431e+014
field min 1
field max 123060
statistic Basic.rack[13].node[3].app 	"End-to-End Delay"
field count 123060
field mean 0.00022080073003828
field stddev 0.00022908789126087
field sum 27.17173783851
field sqrsum 0.012457831162054
field min 9.4416e-006
field max 0.000836912859
statistic Basic.rack[13].node[3].app 	hops
field count 123060
field mean 5.8501706484642
field stddev 0.85205925651203
field sum 719922
field sqrsum 4301008
field min 4
field max 7
statistic Basic.rack[13].node[4].app 	throughput
field count 122640
field mean 61320.5
field stddev 35403.262843981
field sum 7520346120
field sqrsum 6.1486600555324e+014
field min 1
field max 122640
statistic Basic.rack[13].node[4].app 	"End-to-End Delay"
field count 122640
field mean 0.00022042222737619
field stddev 0.00022961861279639
field sum 27.032581965416
field sqrsum 0.012424687312328
field min 9.4416e-006
field max 0.000836477669
statistic Basic.rack[13].node[4].app 	hops
field count 122640
field mean 5.8583414872798
field stddev 0.84973754011895
field sum 718467
field sqrsum 4297577
field min 4
field max 7
statistic Basic.rack[13].node[5].app 	throughput
field count 122576
field mean 61288.5
field stddev 35384.787635367
field sum 7512499176
field sqrsum 6.1390390349798e+014
field min 1
field max 122576
statistic Basic.rack[13].node[5].app 	"End-to-End Delay"
field count 122576
field mean 0.00022108742349864
field stddev 0.00022871886714214
field sum 27.100012022769
field sqrsum 0.012403654481791
field min 9.4416e-006
field max 0.000836888185
statistic Basic.rack[13].node[5].app 	hops
field count 122576
field mean 5.8536499804203
field stddev 0.85434249413058
field sum 717517
field sqrsum 4289561
field min 4
field max 7
statistic Basic.rack[13].node[6].app 	throughput
field count 122679
field mean 61340
field stddev 35414.52117423
field sum 7525129860
field sqrsum 6.1545277910658e+014
field min 1
field max 122679
statistic Basic.rack[13].node[6].app 	"End-to-End Delay"
field count 122679
field mean 0.00022163061803277
field stddev 0.00022919105030305
field sum 27.189422589642
field sqrsum 0.012470104460708
field min 9.4416e-006
field max 0.000836994973
statistic Basic.rack[13].node[6].app 	hops
field count 122679
field mean 5.8539358814467
field stddev 0.85187191235725
field sum 718155
field sqrsum 4293059
field min 4
field max 7
statistic Basic.rack[13].node[7].app 	throughput
field count 122864
field mean 61432.5
field stddev 35467.926074131
field sum 7547842680
field sqrsum 6.1824127797124e+014
field min 1
field max 122864
statistic Basic.rack[13].node[7].app 	"End-to-End Delay"
field count 122864
field mean 0.00022016312703935
field stddev 0.00022909728507181
field sum 27.050122440563
field sqrsum 0.012403973642121
field min 9.4416e-006
field max 0.000836685503
statistic Basic.rack[13].node[7].app 	hops
field count 122864
field mean 5.855742935278
field stddev 0.85131403241409
field sum 719460
field sqrsum 4302016
field min 4
field max 7
statistic Basic.rack[13].node[8].app 	throughput
field count 121985
field mean 60993
field stddev 35214.18063082
field sum 7440231105
field sqrsum 6.0506687430598e+014
field min 1
field max 121985
statistic Basic.rack[13].node[8].app 	"End-to-End Delay"
field count 121985
field mean 0.00022020534508049
field stddev 0.00022914973099921
field sum 26.861749019644
field sqrsum 0.012320431663224
field min 9.4416e-006
field max 0.000836966159
statistic Basic.rack[13].node[8].app 	hops
field count 121985
field mean 5.8542033856622
field stddev 0.85283348562725
field sum 714125
field sqrsum 4269355
field min 4
field max 7
statistic Basic.rack[13].node[9].app 	throughput
field count 123544
field mean 61772.5
field stddev 35664.225165657
field sum 7631621740
field sqrsum 6.2856326137162e+014
field min 1
field max 123544
statistic Basic.rack[13].node[9].app 	"End-to-End Delay"
field count 123544
field mean 0.00022097642747962
field stddev 0.00022933526981241
field sum 27.300311756542
field sqrsum 0.012530428180199
field min 9.4416e-006
field max 0.000836404177
statistic Basic.rack[13].node[9].app 	hops
field count 123544
field mean 5.8533882665285
field stddev 0.85165346769273
field sum 723151
field sqrsum 4322491
field min 4
field max 7
statistic Basic.rack[13].eps.queue[0] 	dropsum
field count 0
field mean nan
field stddev nan
field sum 0
field sqrsum 0
field min nan
field max nan
statistic Basic.rack[13].eps.queue[1] 	dropsum
field count 0
field mean nan
field stddev nan
field sum 0
field sqrsum 0
field min nan
field max nan
statistic Basic.rack[13].eps.queue[2] 	dropsum
field count 0
field mean nan
field stddev nan
field sum 0
field sqrsum 0
field min nan
field max nan
statistic Basic.rack[13].eps.queue[3] 	dropsum
field count 0
field mean nan
field stddev nan
field sum 0
field sqrsum 0
field min nan
field max nan
statistic Basic.rack[14].node[0].app 	throughput
field count 108899
field mean 54450
field stddev 31436.577819476
field sum 5929550550
field sqrsum 4.3048339341315e+014
field min 1
field max 108899
statistic Basic.rack[14].node[0].app 	"End-to-End Delay"
field count 108899
field mean 0.00025691813837562
field stddev 0.00025043151582773
field sum 27.978128350967
field sqrsum 0.01401772953392
field min 1.2992e-006
field max 0.00083680623
statistic Basic.rack[14].node[0].app 	hops
field count 108899
field mean 6.0020018549298
field stddev 1.4268050290158
field sum 653612
field sqrsum 4144672
field min 3
field max 8
statistic Basic.rack[14].node[1].app 	throughput
field count 108378
field mean 54189.5
field stddev 31286.178074351
field sum 5872949631
field sqrsum 4.2433431438889e+014
field min 1
field max 108378
statistic Basic.rack[14].node[1].app 	"End-to-End Delay"
field count 108378
field mean 0.00025605285380908
field stddev 0.00025030811390562
field sum 27.750496190121
field sqrsum 0.013895862763155
field min 1.2992e-006
field max 0.000836835768
statistic Basic.rack[14].node[1].app 	hops
field count 108378
field mean 6.005010241931
field stddev 1.4277144855946
field sum 650811
field sqrsum 4129039
field min 3
field max 8
statistic Basic.rack[14].node[2].app 	throughput
field count 108292
field mean 54146.5
field stddev 31261.352012776
field sum 5863632778
field sqrsum 4.2332496840771e+014
field min 1
field max 108292
statistic Basic.rack[14].node[2].app 	"End-to-End Delay"
field count 108292
field mean 0.00025663891152868
field stddev 0.00025066118573404
field sum 27.791941007263
field sqrsum 0.013936528562742
field min 1.2992e-006
field max 0.000836945892
statistic Basic.rack[14].node[2].app 	hops
field count 108292
field mean 6.0038784028368
field stddev 1.4300003395758
field sum 650172
field sqrsum 4124998
field min 3
field max 8
statistic Basic.rack[14].node[3].app 	throughput
field count 109166
field mean 54583.5
field stddev 31513.654080414
field sum 5958662361
field sqrsum 4.3365754308807e+014
field min 1
field max 109166
statistic Basic.rack[14].node[3].app 	"End-to-End Delay"
field count 109166
field mean 0.00025691174082962
field stddev 0.00025097573084929
field sum 28.046027099406
field sqrsum 0.014081527905158
field min 1.2992e-006
field max 0.000836807067
statistic Basic.rack[14].node[3].app 	hops
field count 109166
field mean 6.0037282670429
field stddev 1.4261319244001
field sum 655403
field sqrsum 4156887
field min 3
field max 8
statistic Basic.rack[14].node[4].app 	throughput
field count 108650
field mean 54325.5
field stddev 31364.697710962
field sum 5902465575
field sqrsum 4.2753722397102e+014
field min 1
field max 108650
statistic Basic.rack[14].node[4].app 	"End-to-End Delay"
field count 108650
field mean 0.00025600318505516
field stddev 0.00025083711468162
field sum 27.814746056243
field sqrsum 0.013956778055401
field min 1.2992e-006
field max 0.000836991836
statistic Basic.rack[14].node[4].app 	hops
field count 108650
field mean 6.0061205706397
field stddev 1.4318286460149
field sum 652565
field sqrsum 4142129
field min 3
field max 8
statistic Basic.rack[14].node[5].app 	throughput
field count 109425
field mean 54713
field stddev 31588.420940275
field sum 5986970025
field sqrsum 4.3675145898042e+014
field min 1
field max 109425
statistic Basic.rack[14].node[5].app 	"End-to-End Delay"
field count 109425
field mean 0.00025687629895806
field stddev 0.00025096827582468
field sum 28.108689013486
field sqrsum 0.014112534900622
field min 1.2992e-006
field max 0.000836831534
statistic Basic.rack[14].node[5].app 	hops
field count 109425
field mean 5.9990312999772
field stddev 1.4307499479006
field sum 656444
field sqrsum 4162024
field min 3
field max 8
statistic Basic.rack[14].node[6].app 	throughput
field count 108427
field mean 54214
field stddev 31300.323155946
field sum 5878261378
field sqrsum 4.2491012370873e+014
field min 1
field max 108427
statistic Basic.rack[14].node[6].app 	"End-to-End Delay"
field count 108427
field mean 0.00025627183797498
field stddev 0.00025047407496107
field sum 27.786786576113
field sqrsum 0.01392332126157
field min 1.2992e-006
field max 0.000836812088
statistic Basic.rack[14].node[6].app 	hops
field count 108427
field mean 6.0040395842364
field stddev 1.4273335310354
field sum 651000
field sqrsum 4129524
field min 3
field max 8
statistic Basic.rack[14].node[7].app 	throughput
field count 109053
field mean 54527
field stddev 31481.033790205
field sum 5946332931
field sqrsum 4.3231227886054e+014
field min 1
field max 109053
statistic Basic.rack[14].node[7].app 	"End-to-End Delay"
field count 109053
field mean 0.00025643493883177
field stddev 0.00025116203401873
field sum 27.964999384421
field sqrsum 0.01405046122891
field min 1.2992e-006
field max 0.000836960115
statistic Basic.rack[14].node[7].app 	hops
field count 109053
field mean 6.0081428296333
field stddev 1.4257174929833
field sum 655206
field sqrsum 4158238
field min 3
field max 8
statistic Basic.rack[14].node[8].app 	throughput
field count 108795
field mean 54398
field stddev 31406.555605478
field sum 5918230410
field sqrsum 4.2925122438077e+014
field min 1
field max 108795
statistic Basic.rack[14].node[8].app 	"End-to-End Delay"
field count 108795
field mean 0.0002571458002316
field stddev 0.00025112108420506
field sum 27.976177336197
field sqrsum 0.014054701861581
field min 1.2992e-006
field max 0.000836940703
statistic Basic.rack[14].node[8].app 	hops
field count 108795
field mean 5.9999816168022
field stddev 1.4284859432401
field sum 652768
field sqrsum 4138598
field min 3
field max 8
statistic Basic.rack[14].node[9].app 	throughput
field count 108846
field mean 54423.5
field stddev 31421.278037343
field sum 5923780281
field sqrsum 4.2985516690391e+014
field min 1
field max 108846
statistic Basic.rack[14].node[9].app 	"End-to-End Delay"
field count 108846
field mean 0.00025708577252286
field stddev 0.0002513214800313
field sum 27.982757996024
field sqrsum 0.014068889780786
field min 1.2992e-006
field max 0.000836372445
statistic Basic.rack[14].node[9].app 	hops
field count 108846
field mean 6.0111441853628
field stddev 1.4250132296904
field sum 654289
field sqrsum 4154053
field min 3
field max 8
statistic Basic.rack[14].eps.queue[0] 	dropsum
field count 0
field mean nan
field stddev nan
field sum 0
field sqrsum 0
field min nan
field max nan
statistic Basic.rack[14].eps.queue[1] 	dropsum
field count 1344216
field mean 672108.5
field stddev 388041.87906251
field sum 903458999436
field sqrsum 8.0962966274406e+017
field min 1
field max 1344216
statistic Basic.rack[14].eps.queue[2] 	dropsum
field count 0
field mean nan
field stddev nan
field sum 0
field sqrsum 0
field min nan
field max nan
statistic Basic.rack[14].eps.queue[3] 	dropsum
field count 0
field mean nan
field stddev nan
field sum 0
field sqrsum 0
field min nan
field max nan
statistic Basic.rack[15].node[0].app 	throughput
field count 110441
field mean 55221
field stddev 31881.714877026
field sum 6098662461
field sqrsum 4.4903028679102e+014
field min 1
field max 110441
statistic Basic.rack[15].node[0].app 	"End-to-End Delay"
field count 110441
field mean 0.00025802961520348
field stddev 0.00025034484419252
field sum 28.497048732688
field sqrsum 0.014274637948492
field min 1.2992e-006
field max 0.000834824799
statistic Basic.rack[15].node[0].app 	hops
field count 110441
field mean 6.0084388949756
field stddev 1.4219910152924
field sum 663578
field sqrsum 4210384
field min 3
field max 8
statistic Basic.rack[15].node[1].app 	throughput
field count 109848
field mean 54924.5
field stddev 31710.53052221
field sum 6033346476
field sqrsum 4.4183604024592e+014
field min 1
field max 109848
statistic Basic.rack[15].node[1].app 	"End-to-End Delay"
field count 109848
field mean 0.00025703631050164
field stddev 0.00025068148894896
field sum 28.234924635984
field sqrsum 0.014160319129946
field min 1.2992e-006
field max 0.000834839508
statistic Basic.rack[15].node[1].app 	hops
field count 109848
field mean 6.0171327652757
field stddev 1.4163804527886
field sum 660970
field sqrsum 4197512
field min 3
field max 8
statistic Basic.rack[15].node[2].app 	throughput
field count 110805
field mean 55403
field stddev 31986.79262602
field sum 6138929415
field sqrsum 4.5348476219586e+014
field min 1
field max 110805
statistic Basic.rack[15].node[2].app 	"End-to-End Delay"
field count 110805
field mean 0.00025680987688536
field stddev 0.00025010400990405
field sum 28.455818408283
field sqrsum 0.014238748777492
field min 1.2992e-006
field max 0.000834850976
statistic Basic.rack[15].node[2].app 	hops
field count 110805
field mean 6.0146383285953
field stddev 1.4233425125672
field sum 666452
field sqrsum 4232946
field min 3
field max 8
statistic Basic.rack[15].node[3].app 	throughput
field count 110155
field mean 55078
field stddev 31799.153788531
field sum 6067117090
field sqrsum 4.4555087773833e+014
field min 1
field max 110155
statistic Basic.rack[15].node[3].app 	"End-to-End Delay"
field count 110155
field mean 0.00025802424956018
field stddev 0.00025037502026842
field sum 28.422661210302
field sqrsum 0.014239031312696
field min 1.2992e-006
field max 0.000834879169
statistic Basic.rack[15].node[3].app 	hops
field count 110155
field mean 6.0087694612137
field stddev 1.4218943000506
field sum 661896
field sqrsum 4199888
field min 3
field max 8
statistic Basic.rack[15].node[4].app 	throughput
field count 110622
field mean 55311.5
field stddev 31933.965076388
field sum 6118668753
field sqrsum 4.512416227525e+014
field min 1
field max 110622
statistic Basic.rack[15].node[4].app 	"End-to-End Delay"
field count 110622
field mean 0.00026000642899995
field stddev 0.00025124573239249
field sum 28.762431188833
field sqrsum 0.01446130327137
field min 1.2992e-006
field max 0.000834804467
statistic Basic.rack[15].node[4].app 	hops
field count 110622
field mean 6.002775216503
field stddev 1.421291616886
field sum 664039
field sqrsum 4209539
field min 3
field max 8
statistic Basic.rack[15].node[5].app 	throughput
field count 109524
field mean 54762.5
field stddev 31616.9997786
field sum 5997808050
field sqrsum 4.3793795184815e+014
field min 1
field max 109524
statistic Basic.rack[15].node[5].app 	"End-to-End Delay"
field count 109524
field mean 0.00025817606867473
field stddev 0.00025019719645034
field sum 28.276475745531
field sqrsum 0.014156299876333
field min 1.2992e-006
field max 0.00083483994
statistic Basic.rack[15].node[5].app 	hops
field count 109524
field mean 6.0106460684416
field stddev 1.4211036208084
field sum 658310
field sqrsum 4178054
field min 3
field max 8
statistic Basic.rack[15].node[6].app 	throughput
field count 109609
field mean 54805
field stddev 31641.537165041
field sum 6007121245
field sqrsum 4.3895837073588e+014
field min 1
field max 109609
statistic Basic.rack[15].node[6].app 	"End-to-End Delay"
field count 109609
field mean 0.00025826156785936
field stddev 0.00025064226482212
field sum 28.307792191496
field sqrsum 0.014196558689074
field min 1.2992e-006
field max 0.00083479989
statistic Basic.rack[15].node[6].app 	hops
field count 109609
field mean 6.0114224196918
field stddev 1.4231643829542
field sum 658906
field sqrsum 4182962
field min 3
field max 8
statistic Basic.rack[15].node[7].app 	throughput
field count 110525
field mean 55263
field stddev 31905.963588333
field sum 6107943075
field sqrsum 4.5005564155728e+014
field min 1
field max 110525
statistic Basic.rack[15].node[7].app 	"End-to-End Delay"
field count 110525
field mean 0.00025975709328124
field stddev 0.00025173123902994
field sum 28.709652734909
field sqrsum 0.014461288936077
field min 1.2992e-006
field max 0.000834874285
statistic Basic.rack[15].node[7].app 	hops
field count 110525
field mean 6.0103325039584
field stddev 1.4171924250905
field sum 664292
field sqrsum 4214596
field min 3
field max 8
statistic Basic.rack[15].node[8].app 	throughput
field count 109808
field mean 54904.5
field stddev 31698.983516826
field sum 6028953336
field sqrsum 4.413535482641e+014
field min 1
field max 109808
statistic Basic.rack[15].node[8].app 	"End-to-End Delay"
field count 109808
field mean 0.00026013680717479
field stddev 0.00025118139379204
field sum 28.56510252225
field sqrsum 0.014358787977494
field min 1.2992e-006
field max 0.000834841546
statistic Basic.rack[15].node[8].app 	hops
field count 109808
field mean 6.0085877167419
field stddev 1.4221662582076
field sum 659791
field sqrsum 4186503
field min 3
field max 8
statistic Basic.rack[15].node[9].app 	throughput
field count 110659
field mean 55330
field stddev 31944.646056369
field sum 6122762470
field sqrsum 4.5169455569931e+014
field min 1
field max 110659
statistic Basic.rack[15].node[9].app 	"End-to-End Delay"
field count 110659
field mean 0.00025934540151618
field stddev 0.00025146411975583
field sum 28.698902786379
field sqrsum 0.01444029895983
field min 1.2992e-006
field max 0.000834801774
statistic Basic.rack[15].node[9].app 	hops
field count 110659
field mean 6.0193025420436
field stddev 1.4222954734129
field sum 666090
field sqrsum 4233250
field min 3
field max 8
statistic Basic.rack[15].eps.queue[0] 	dropsum
field count 1349308
field mean 674654.5
field stddev 389511.81284787
field sum 910316714086
field sqrsum 8.1886538667271e+017
field min 1
field max 1349308
statistic Basic.rack[15].eps.queue[1] 	dropsum
field count 0
field mean nan
field stddev nan
field sum 0
field sqrsum 0
field min nan
field max nan
statistic Basic.rack[15].eps.queue[2] 	dropsum
field count 0
field mean nan
field stddev nan
field sum 0
field sqrsum 0
field min nan
field max nan
statistic Basic.rack[15].eps.queue[3] 	dropsum
field count 0
field mean nan
field stddev nan
field sum 0
field sqrsum 0
field min nan
field max nan
