version 2
run Basic-33-20180510-16:44:01-23076
attr configname Basic
attr datetime 20180510-16:44:01
attr experiment Basic
attr inifile omnetpp.ini
attr iterationvars "$0=exponential(0.1 ms), $1=4, $2=3"
attr iterationvarsf exponential(0.1_ms),4,3-
attr measurement "$0=exponential(0.1 ms), $1=4, $2=3"
attr network Networks.Basic
attr processid 23076
attr repetition 0
attr replication #0
attr resultdir results
attr runnumber 33
attr seedset 33
param **.frameCapacity 50
param **.packetLength "1024 bytes"
param **.pattern 4
param **.sendIaTime "exponential(0.1 ms)"
param **.tp 3

statistic Basic.rack[0].node[0].app 	throughput
field count 89632
field mean 44816.5
field stddev 25874.674001167
field sum 4016992528
field sqrsum 2.4003538851064e+014
field min 1
field max 89632
statistic Basic.rack[0].node[0].app 	"End-to-End Delay"
field count 89632
field mean 8.0548769555589e-005
field stddev 0.00015055312837702
field sum 7.2197473128066
field sqrsum 0.0026131399201114
field min 8.496e-007
field max 0.000492498043
statistic Basic.rack[0].node[0].app 	hops
field count 89632
field mean 4.8430917529454
field stddev 0.83323621225678
field sum 434096
field sqrsum 2164596
field min 4
field max 6
statistic Basic.rack[0].node[1].app 	throughput
field count 89717
field mean 44859
field stddev 25899.211387608
field sum 4024614903
field sqrsum 2.4071892503994e+014
field min 1
field max 89717
statistic Basic.rack[0].node[1].app 	"End-to-End Delay"
field count 89717
field mean 8.1014581542289e-005
field stddev 0.00015104089399847
field sum 7.2683852122296
field sqrsum 0.0026355678439727
field min 8.496e-007
field max 0.000505468863
statistic Basic.rack[0].node[1].app 	hops
field count 89717
field mean 4.8411003488748
field stddev 0.83240956658324
field sum 434329
field sqrsum 2164795
field min 4
field max 6
statistic Basic.rack[0].node[2].app 	throughput
field count 89435
field mean 44718
field stddev 25817.804999651
field sum 3999354330
field sqrsum 2.3845616945381e+014
field min 1
field max 89435
statistic Basic.rack[0].node[2].app 	"End-to-End Delay"
field count 89435
field mean 8.1748098998373e-005
field stddev 0.00015172057208378
field sum 7.3111412339195
field sqrsum 0.002656364948082
field min 8.496e-007
field max 0.000504459585
statistic Basic.rack[0].node[2].app 	hops
field count 89435
field mean 4.8388214904679
field stddev 0.83263980060978
field sum 432760
field sqrsum 2156052
field min 4
field max 6
statistic Basic.rack[0].node[3].app 	throughput
field count 89120
field mean 44560.5
field stddev 25726.872332252
field sum 3971231760
field sqrsum 2.3594544004472e+014
field min 1
field max 89120
statistic Basic.rack[0].node[3].app 	"End-to-End Delay"
field count 89120
field mean 8.0013443192758e-005
field stddev 0.00015006288631979
field sum 7.1307980573386
field sqrsum 0.0025774188674978
field min 8.496e-007
field max 0.000494484942
statistic Basic.rack[0].node[3].app 	hops
field count 89120
field mean 4.8435592459605
field stddev 0.83193655841441
field sum 431658
field sqrsum 2152442
field min 4
field max 6
statistic Basic.rack[0].node[4].app 	throughput
field count 89343
field mean 44672
field stddev 25791.246887268
field sum 3991130496
field sqrsum 2.3772104497958e+014
field min 1
field max 89343
statistic Basic.rack[0].node[4].app 	"End-to-End Delay"
field count 89343
field mean 8.1020575068617e-005
field stddev 0.00015098875474824
field sum 7.2386212383554
field sqrsum 0.0026232607974017
field min 8.496e-007
field max 0.000514703866
statistic Basic.rack[0].node[4].app 	hops
field count 89343
field mean 4.8417111581209
field stddev 0.83334960979181
field sum 432573
field sqrsum 2156439
field min 4
field max 6
statistic Basic.rack[0].node[5].app 	throughput
field count 89093
field mean 44547
field stddev 25719.078103618
field sum 3968825871
field sqrsum 2.3573105849196e+014
field min 1
field max 89093
statistic Basic.rack[0].node[5].app 	"End-to-End Delay"
field count 89093
field mean 8.1338766454429e-005
field stddev 0.00015126428247319
field sum 7.2467147197244
field sqrsum 0.002627942477939
field min 8.496e-007
field max 0.000496233132
statistic Basic.rack[0].node[5].app 	hops
field count 89093
field mean 4.8448475188848
field stddev 0.83385094842172
field sum 431642
field sqrsum 2153186
field min 4
field max 6
statistic Basic.rack[0].node[6].app 	throughput
field count 89246
field mean 44623.5
field stddev 25763.245399212
field sum 3982468881
field sqrsum 2.3694760599211e+014
field min 1
field max 89246
statistic Basic.rack[0].node[6].app 	"End-to-End Delay"
field count 89246
field mean 8.0810555754583e-005
field stddev 0.00015081757585262
field sum 7.2120188588735
field sqrsum 0.0026127687732481
field min 8.496e-007
field max 0.000509680643
statistic Basic.rack[0].node[6].app 	hops
field count 89246
field mean 4.8450574815678
field stddev 0.83304930539528
field sum 432402
field sqrsum 2156946
field min 4
field max 6
statistic Basic.rack[0].node[7].app 	throughput
field count 88816
field mean 44408.5
field stddev 25639.115091334
field sum 3944185336
field sqrsum 2.335391579299e+014
field min 1
field max 88816
statistic Basic.rack[0].node[7].app 	"End-to-End Delay"
field count 88816
field mean 8.0087826039075e-005
field stddev 0.00015024477887693
field sum 7.1130803574865
field sqrsum 0.0025745359745602
field min 8.496e-007
field max 0.000521463549
statistic Basic.rack[0].node[7].app 	hops
field count 88816
field mean 4.8411209691947
field stddev 0.83421093008919
field sum 429969
field sqrsum 2143339
field min 4
field max 6
statistic Basic.rack[0].node[8].app 	throughput
field count 88678
field mean 44339.5
field stddev 25599.277922759
field sum 3931938181
field sqrsum 2.3245225332254e+014
field min 1
field max 88678
statistic Basic.rack[0].node[8].app 	"End-to-End Delay"
field count 88678
field mean 8.1189603836988e-005
field stddev 0.00015111594217472
field sum 7.1997316890564
field sqrsum 0.0026095738166922
field min 8.496e-007
field max 0.000499500779
statistic Basic.rack[0].node[8].app 	hops
field count 88678
field mean 4.8421367193667
field stddev 0.83360273012425
field sum 429391
field sqrsum 2140791
field min 4
field max 6
statistic Basic.rack[0].node[9].app 	throughput
field count 89041
field mean 44521
field stddev 25704.066996619
field sum 3964194361
field sqrsum 2.3531854146332e+014
field min 1
field max 89041
statistic Basic.rack[0].node[9].app 	"End-to-End Delay"
field count 89041
field mean 8.1019310015313e-005
field stddev 0.00015093192821267
field sum 7.2140403830735
field sqrsum 0.0026128475710428
field min 8.496e-007
field max 0.000518964511
statistic Basic.rack[0].node[9].app 	hops
field count 89041
field mean 4.8466549117822
field stddev 0.83538534080185
field sum 431551
field sqrsum 2153717
field min 4
field max 6
statistic Basic.rack[0].eps.queue[0] 	dropsum
field count 0
field mean nan
field stddev nan
field sum 0
field sqrsum 0
field min nan
field max nan
statistic Basic.rack[0].eps.queue[1] 	dropsum
field count 0
field mean nan
field stddev nan
field sum 0
field sqrsum 0
field min nan
field max nan
statistic Basic.rack[0].eps.queue[2] 	dropsum
field count 0
field mean nan
field stddev nan
field sum 0
field sqrsum 0
field min nan
field max nan
statistic Basic.rack[0].eps.queue[3] 	dropsum
field count 0
field mean nan
field stddev nan
field sum 0
field sqrsum 0
field min nan
field max nan
statistic Basic.rack[1].node[0].app 	throughput
field count 89156
field mean 44578.5
field stddev 25737.264637098
field sum 3974440746
field sqrsum 2.3623148424717e+014
field min 1
field max 89156
statistic Basic.rack[1].node[0].app 	"End-to-End Delay"
field count 89156
field mean 7.790113888137e-005
field stddev 0.00015527968859657
field sum 6.9453539381074
field sqrsum 0.0026907368783425
field min 8.496e-007
field max 0.000513224843
statistic Basic.rack[1].node[0].app 	hops
field count 89156
field mean 4.7210843914038
field stddev 0.44846844676424
field sum 420913
field sqrsum 2005097
field min 4
field max 5
statistic Basic.rack[1].node[1].app 	throughput
field count 88968
field mean 44484.5
field stddev 25682.993711793
field sum 3957696996
field sqrsum 2.3474024345908e+014
field min 1
field max 88968
statistic Basic.rack[1].node[1].app 	"End-to-End Delay"
field count 88968
field mean 7.7428456489854e-005
field stddev 0.00015496962299977
field sum 6.8886549169894
field sqrsum 0.0026699723839295
field min 8.496e-007
field max 0.000522825879
statistic Basic.rack[1].node[1].app 	hops
field count 88968
field mean 4.7183931301142
field stddev 0.44978518722349
field sum 419786
field sqrsum 1998714
field min 4
field max 5
statistic Basic.rack[1].node[2].app 	throughput
field count 88808
field mean 44404.5
field stddev 25636.805690257
field sum 3943474836
field sqrsum 2.334760566486e+014
field min 1
field max 88808
statistic Basic.rack[1].node[2].app 	"End-to-End Delay"
field count 88808
field mean 7.8819561151702e-005
field stddev 0.00015629142945257
field sum 6.9998075867604
field sqrsum 0.0027210113209363
field min 8.496e-007
field max 0.000538323406
statistic Basic.rack[1].node[2].app 	hops
field count 88808
field mean 4.7169286550761
field stddev 0.4504933338121
field sum 418901
field sqrsum 1993949
field min 4
field max 5
statistic Basic.rack[1].node[3].app 	throughput
field count 89147
field mean 44574
field stddev 25734.666560886
field sum 3973638378
field sqrsum 2.3615995153517e+014
field min 1
field max 89147
statistic Basic.rack[1].node[3].app 	"End-to-End Delay"
field count 89147
field mean 7.7992946943727e-005
field stddev 0.00015548566423721
field sum 6.9528372411925
field sqrsum 0.0026974474003735
field min 8.496e-007
field max 0.000533990949
statistic Basic.rack[1].node[3].app 	hops
field count 89147
field mean 4.7182743109695
field stddev 0.44984285602155
field sum 420620
field sqrsum 2002640
field min 4
field max 5
statistic Basic.rack[1].node[4].app 	throughput
field count 89046
field mean 44523.5
field stddev 25705.510372292
field sum 3964639581
field sqrsum 2.3535818563301e+014
field min 1
field max 89046
statistic Basic.rack[1].node[4].app 	"End-to-End Delay"
field count 89046
field mean 7.8104858685582e-005
field stddev 0.0001555487931758
field sum 6.9549252465164
field sqrsum 0.0026976952559674
field min 8.496e-007
field max 0.000508350772
statistic Basic.rack[1].node[4].app 	hops
field count 89046
field mean 4.7211778182063
field stddev 0.44842238004112
field sum 420402
field sqrsum 2002698
field min 4
field max 5
statistic Basic.rack[1].node[5].app 	throughput
field count 89019
field mean 44510
field stddev 25697.716143658
field sum 3962235690
field sqrsum 2.3514416000397e+014
field min 1
field max 89019
statistic Basic.rack[1].node[5].app 	"End-to-End Delay"
field count 89019
field mean 7.7428618181078e-005
field stddev 0.00015499411736476
field sum 6.8926181618614
field sqrsum 0.0026721810182719
field min 8.496e-007
field max 0.000520458247
statistic Basic.rack[1].node[5].app 	hops
field count 89019
field mean 4.7186218672418
field stddev 0.44967404935657
field sum 420047
field sqrsum 2000043
field min 4
field max 5
statistic Basic.rack[1].node[6].app 	throughput
field count 88906
field mean 44453.5
field stddev 25665.095853448
field sum 3952182871
field sqrsum 2.3424983094704e+014
field min 1
field max 88906
statistic Basic.rack[1].node[6].app 	"End-to-End Delay"
field count 88906
field mean 7.7662737512884e-005
field stddev 0.00015508738551303
field sum 6.9046833413204
field sqrsum 0.0026745883066464
field min 8.496e-007
field max 0.000505186692
statistic Basic.rack[1].node[6].app 	hops
field count 88906
field mean 4.7198164353362
field stddev 0.44909130836968
field sum 419620
field sqrsum 1998460
field min 4
field max 5
statistic Basic.rack[1].node[7].app 	throughput
field count 89449
field mean 44725
field stddev 25821.846451535
field sum 4000606525
field sqrsum 2.3856816890532e+014
field min 1
field max 89449
statistic Basic.rack[1].node[7].app 	"End-to-End Delay"
field count 89449
field mean 7.7763482191387e-005
field stddev 0.00015527984508977
field sum 6.9558657185374
field sqrsum 0.0026976673358077
field min 8.496e-007
field max 0.000521720448
statistic Basic.rack[1].node[7].app 	hops
field count 89449
field mean 4.7178392156424
field stddev 0.4500537084933
field sum 422006
field sqrsum 2009074
field min 4
field max 5
statistic Basic.rack[1].node[8].app 	throughput
field count 88550
field mean 44275.5
field stddev 25562.32750553
field sum 3920595525
field sqrsum 2.3144712935768e+014
field min 1
field max 88550
statistic Basic.rack[1].node[8].app 	"End-to-End Delay"
field count 88550
field mean 7.8149836315475e-005
field stddev 0.00015561077570281
field sum 6.9201680057353
field sqrsum 0.0026849986639485
field min 8.496e-007
field max 0.000535992639
statistic Basic.rack[1].node[8].app 	hops
field count 88550
field mean 4.7191643139469
field stddev 0.44940992906517
field sum 417882
field sqrsum 1989938
field min 4
field max 5
statistic Basic.rack[1].node[9].app 	throughput
field count 89024
field mean 44512.5
field stddev 25699.159519331
field sum 3962680800
field sqrsum 2.351837845864e+014
field min 1
field max 89024
statistic Basic.rack[1].node[9].app 	"End-to-End Delay"
field count 89024
field mean 7.8613868067368e-005
field stddev 0.0001561586829445
field sum 6.9985209908294
field sqrsum 0.0027210542221751
field min 8.496e-007
field max 0.000505839261
statistic Basic.rack[1].node[9].app 	hops
field count 89024
field mean 4.7170538281812
field stddev 0.45043303022679
field sum 419931
field sqrsum 1998899
field min 4
field max 5
statistic Basic.rack[1].eps.queue[0] 	dropsum
field count 0
field mean nan
field stddev nan
field sum 0
field sqrsum 0
field min nan
field max nan
statistic Basic.rack[1].eps.queue[1] 	dropsum
field count 0
field mean nan
field stddev nan
field sum 0
field sqrsum 0
field min nan
field max nan
statistic Basic.rack[1].eps.queue[2] 	dropsum
field count 0
field mean nan
field stddev nan
field sum 0
field sqrsum 0
field min nan
field max nan
statistic Basic.rack[1].eps.queue[3] 	dropsum
field count 0
field mean nan
field stddev nan
field sum 0
field sqrsum 0
field min nan
field max nan
statistic Basic.rack[2].node[0].app 	throughput
field count 80922
field mean 40461.5
field stddev 23360.313578803
field sum 3274225503
field sqrsum 1.7663900884434e+014
field min 1
field max 80922
statistic Basic.rack[2].node[0].app 	"End-to-End Delay"
field count 80922
field mean 0.00017352414727289
field stddev 0.00020202320846514
field sum 14.041921045617
field sqrsum 0.0057392716361927
field min 8.496e-007
field max 0.00061963046
statistic Basic.rack[2].node[0].app 	hops
field count 80922
field mean 4.9069227157015
field stddev 0.71527737873748
field sum 397078
field sqrsum 1989832
field min 4
field max 6
statistic Basic.rack[2].node[1].app 	throughput
field count 81210
field mean 40605.5
field stddev 23443.452017568
field sum 3297572655
field sqrsum 1.7853168273258e+014
field min 1
field max 81210
statistic Basic.rack[2].node[1].app 	"End-to-End Delay"
field count 81210
field mean 0.00017348597984673
field stddev 0.0002020275702253
field sum 14.088796423353
field sqrsum 0.0057587652860673
field min 8.496e-007
field max 0.000613265748
statistic Basic.rack[2].node[1].app 	hops
field count 81210
field mean 4.9027705947543
field stddev 0.71300119594335
field sum 398154
field sqrsum 1993342
field min 4
field max 6
statistic Basic.rack[2].node[2].app 	throughput
field count 81305
field mean 40653
field stddev 23470.876155355
field sum 3305292165
field sqrsum 1.791589547476e+014
field min 1
field max 81305
statistic Basic.rack[2].node[2].app 	"End-to-End Delay"
field count 81305
field mean 0.00017314617340456
field stddev 0.00020191125365867
field sum 14.077649628658
field sqrsum 0.0057521051853311
field min 8.496e-007
field max 0.00062701356
statistic Basic.rack[2].node[2].app 	hops
field count 81305
field mean 4.9040034438226
field stddev 0.71387331488146
field sum 398720
field sqrsum 1996758
field min 4
field max 6
statistic Basic.rack[2].node[3].app 	throughput
field count 81957
field mean 40979
field stddev 23659.092343114
field sum 3358515903
field sqrsum 1.8350371141342e+014
field min 1
field max 81957
statistic Basic.rack[2].node[3].app 	"End-to-End Delay"
field count 81957
field mean 0.00017346352507615
field stddev 0.00020200268825203
field sum 14.216550124666
field sqrsum 0.0058102745322654
field min 8.496e-007
field max 0.000597711606
statistic Basic.rack[2].node[3].app 	hops
field count 81957
field mean 4.9051697841551
field stddev 0.71471856782784
field sum 402013
field sqrsum 2013807
field min 4
field max 6
statistic Basic.rack[2].node[4].app 	throughput
field count 81558
field mean 40779.5
field stddev 23543.910964409
field sum 3325894461
field sqrsum 1.8083664226498e+014
field min 1
field max 81558
statistic Basic.rack[2].node[4].app 	"End-to-End Delay"
field count 81558
field mean 0.00017267164330977
field stddev 0.00020199751998622
field sum 14.082753885058
field sqrsum 0.005759462370118
field min 8.496e-007
field max 0.000624259814
statistic Basic.rack[2].node[4].app 	hops
field count 81558
field mean 4.9032958140219
field stddev 0.71472828423728
field sum 399903
field sqrsum 2002505
field min 4
field max 6
statistic Basic.rack[2].node[5].app 	throughput
field count 81270
field mean 40635.5
field stddev 23460.772525644
field sum 3302447085
field sqrsum 1.78927683881e+014
field min 1
field max 81270
statistic Basic.rack[2].node[5].app 	"End-to-End Delay"
field count 81270
field mean 0.00017340128336084
field stddev 0.00020207754607229
field sum 14.092322298736
field sqrsum 0.0057622735819044
field min 8.496e-007
field max 0.000629864368
statistic Basic.rack[2].node[5].app 	hops
field count 81270
field mean 4.9022025347607
field stddev 0.71427649995333
field sum 398402
field sqrsum 1994510
field min 4
field max 6
statistic Basic.rack[2].node[6].app 	throughput
field count 81339
field mean 40670
field stddev 23480.691109931
field sum 3308057130
field sqrsum 1.7938380861709e+014
field min 1
field max 81339
statistic Basic.rack[2].node[6].app 	"End-to-End Delay"
field count 81339
field mean 0.0001732461816744
field stddev 0.00020187673435912
field sum 14.091671171214
field sqrsum 0.0057561946347058
field min 8.496e-007
field max 0.000622260261
statistic Basic.rack[2].node[6].app 	hops
field count 81339
field mean 4.9047320473574
field stddev 0.71261236236709
field sum 398946
field sqrsum 1998028
field min 4
field max 6
statistic Basic.rack[2].node[7].app 	throughput
field count 81594
field mean 40797.5
field stddev 23554.303269254
field sum 3328831215
field sqrsum 1.8107621238154e+014
field min 1
field max 81594
statistic Basic.rack[2].node[7].app 	"End-to-End Delay"
field count 81594
field mean 0.00017313933685695
field stddev 0.00020207678793185
field sum 14.127131051506
field sqrsum 0.005777814559573
field min 8.496e-007
field max 0.000625924506
statistic Basic.rack[2].node[7].app 	hops
field count 81594
field mean 4.9060592690639
field stddev 0.71498768285258
field sum 400305
field sqrsum 2005631
field min 4
field max 6
statistic Basic.rack[2].node[8].app 	throughput
field count 81199
field mean 40600
field stddev 23440.276591087
field sum 3296679400
field sqrsum 1.784591459602e+014
field min 1
field max 81199
statistic Basic.rack[2].node[8].app 	"End-to-End Delay"
field count 81199
field mean 0.00017449569989665
field stddev 0.0002023864553403
field sum 14.168876335908
field sqrsum 0.0057983005896118
field min 8.496e-007
field max 0.000651563709
statistic Basic.rack[2].node[8].app 	hops
field count 81199
field mean 4.9075604379364
field stddev 0.7167350032218
field sum 398489
field sqrsum 1997321
field min 4
field max 6
statistic Basic.rack[2].node[9].app 	throughput
field count 81277
field mean 40639
field stddev 23462.793251586
field sum 3303016003
field sqrsum 1.7897392212256e+014
field min 1
field max 81277
statistic Basic.rack[2].node[9].app 	"End-to-End Delay"
field count 81277
field mean 0.00017370022074999
field stddev 0.00020221566894679
field sum 14.117832841897
field sqrsum 0.0057757419641122
field min 8.496e-007
field max 0.000621764036
statistic Basic.rack[2].node[9].app 	hops
field count 81277
field mean 4.9039949801297
field stddev 0.71568412054207
field sum 398582
field sqrsum 1996274
field min 4
field max 6
statistic Basic.rack[2].eps.queue[0] 	dropsum
field count 0
field mean nan
field stddev nan
field sum 0
field sqrsum 0
field min nan
field max nan
statistic Basic.rack[2].eps.queue[1] 	dropsum
field count 779685
field mean 389843
field stddev 225075.81665342
field sum 303954739455
field sqrsum 1.5799273533933e+017
field min 1
field max 779685
statistic Basic.rack[2].eps.queue[2] 	dropsum
field count 0
field mean nan
field stddev nan
field sum 0
field sqrsum 0
field min nan
field max nan
statistic Basic.rack[2].eps.queue[3] 	dropsum
field count 0
field mean nan
field stddev nan
field sum 0
field sqrsum 0
field min nan
field max nan
statistic Basic.rack[3].node[0].app 	throughput
field count 62715
field mean 31358
field stddev 18104.405403106
field sum 1966616970
field sqrsum 82224911054690
field min 1
field max 62715
statistic Basic.rack[3].node[0].app 	"End-to-End Delay"
field count 62715
field mean 0.00042962702708028
field stddev 2.4104891218302e-005
field sum 26.94405900334
field sqrsum 0.011612335672168
field min 2.5014842e-005
field max 0.000647194441
statistic Basic.rack[3].node[0].app 	hops
field count 62715
field mean 4.2719764011799
field stddev 0.80456072468593
field sum 267917
field sqrsum 1185131
field min 3
field max 5
statistic Basic.rack[3].node[1].app 	throughput
field count 62620
field mean 31310.5
field stddev 18076.981265318
field sum 1960663510
field sqrsum 81851819551970
field min 1
field max 62620
statistic Basic.rack[3].node[1].app 	"End-to-End Delay"
field count 62620
field mean 0.00042969851771864
field stddev 2.4185283525892e-005
field sum 26.907721179541
field sqrsum 0.011598835508662
field min 4.5157828e-005
field max 0.000690025685
statistic Basic.rack[3].node[1].app 	hops
field count 62620
field mean 4.2775630788885
field stddev 0.80368961176597
field sum 267861
field sqrsum 1186239
field min 3
field max 5
statistic Basic.rack[3].node[2].app 	throughput
field count 62598
field mean 31299.5
field stddev 18070.630412357
field sum 1959286101
field sqrsum 81765580662299
field min 1
field max 62598
statistic Basic.rack[3].node[2].app 	"End-to-End Delay"
field count 62598
field mean 0.00042964215374263
field stddev 2.4399335868419e-005
field sum 26.894739539981
field sqrsum 0.011592379541507
field min 3.554114e-005
field max 0.000662004377
statistic Basic.rack[3].node[2].app 	hops
field count 62598
field mean 4.2759672832998
field stddev 0.80471462087629
field sum 267667
field sqrsum 1185071
field min 3
field max 5
statistic Basic.rack[3].node[3].app 	throughput
field count 62306
field mean 31153.5
field stddev 17986.337273053
field sum 1941049971
field sqrsum 80626686678741
field min 1
field max 62306
statistic Basic.rack[3].node[3].app 	"End-to-End Delay"
field count 62306
field mean 0.00042974813073007
field stddev 2.4387722710917e-005
field sum 26.775887033268
field sqrsum 0.011543943986477
field min 2.3488355e-005
field max 0.000648837857
statistic Basic.rack[3].node[3].app 	hops
field count 62306
field mean 4.2726864186435
field stddev 0.80473936959069
field sum 266214
field sqrsum 1177798
field min 3
field max 5
statistic Basic.rack[3].node[4].app 	throughput
field count 62921
field mean 31461
field stddev 18163.872480834
field sum 1979557581
field sqrsum 83037821555261
field min 1
field max 62921
statistic Basic.rack[3].node[4].app 	"End-to-End Delay"
field count 62921
field mean 0.00042966389446921
field stddev 2.4115335981254e-005
field sum 27.034881903897
field sqrsum 0.011652503735447
field min 8.992e-006
field max 0.000641303309
statistic Basic.rack[3].node[4].app 	hops
field count 62921
field mean 4.2806376249583
field stddev 0.8026943346172
field sum 269342
field sqrsum 1193496
field min 3
field max 5
statistic Basic.rack[3].node[5].app 	throughput
field count 62522
field mean 31261.5
field stddev 18048.691102127
field sum 1954531503
field sqrsum 81468130597545
field min 1
field max 62522
statistic Basic.rack[3].node[5].app 	"End-to-End Delay"
field count 62522
field mean 0.00042985376037082
field stddev 2.4394633603817e-005
field sum 26.875316805904
field sqrsum 0.011589662121528
field min 2.2332249e-005
field max 0.000635061052
statistic Basic.rack[3].node[5].app 	hops
field count 62522
field mean 4.2770064937142
field stddev 0.80387018039241
field sum 267407
field sqrsum 1184103
field min 3
field max 5
statistic Basic.rack[3].node[6].app 	throughput
field count 62824
field mean 31412.5
field stddev 18135.870992777
field sum 1973458900
field sqrsum 82654379108700
field min 1
field max 62824
statistic Basic.rack[3].node[6].app 	"End-to-End Delay"
field count 62824
field mean 0.00042956217320217
field stddev 2.398419740634e-005
field sum 26.986813969253
field sqrsum 0.011628652867339
field min 6.0859066e-005
field max 0.000640504852
statistic Basic.rack[3].node[6].app 	hops
field count 62824
field mean 4.2753883866038
field stddev 0.80467991024059
field sum 268597
field sqrsum 1189035
field min 3
field max 5
statistic Basic.rack[3].node[7].app 	throughput
field count 62394
field mean 31197.5
field stddev 18011.740684898
field sum 1946536815
field sqrsum 80968794202345
field min 1
field max 62394
statistic Basic.rack[3].node[7].app 	"End-to-End Delay"
field count 62394
field mean 0.00042960622481874
field stddev 2.3994427731533e-005
field sum 26.804850791341
field sqrsum 0.011551452437049
field min 3.1331029e-005
field max 0.000639409751
statistic Basic.rack[3].node[7].app 	hops
field count 62394
field mean 4.2757316408629
field stddev 0.8045029862614
field sum 266780
field sqrsum 1181062
field min 3
field max 5
statistic Basic.rack[3].node[8].app 	throughput
field count 62779
field mean 31390
field stddev 18122.88061172
field sum 1970632810
field sqrsum 82476894996930
field min 1
field max 62779
statistic Basic.rack[3].node[8].app 	"End-to-End Delay"
field count 62779
field mean 0.00042964294870186
field stddev 2.4149221010927e-005
field sum 26.972554676554
field sqrsum 0.011625179105367
field min 4.1249024e-005
field max 0.00066781806
statistic Basic.rack[3].node[8].app 	hops
field count 62779
field mean 4.2738495356728
field stddev 0.80616925387164
field sum 268308
field sqrsum 1187508
field min 3
field max 5
statistic Basic.rack[3].node[9].app 	throughput
field count 62480
field mean 31240.5
field stddev 18036.566746474
field sum 1951906440
field sqrsum 81304060216280
field min 1
field max 62480
statistic Basic.rack[3].node[9].app 	"End-to-End Delay"
field count 62480
field mean 0.00042968639403235
field stddev 2.4271556574054e-005
field sum 26.846805899141
field sqrsum 0.011572514125469
field min 4.5972467e-005
field max 0.000673658405
statistic Basic.rack[3].node[9].app 	hops
field count 62480
field mean 4.2802016645327
field stddev 0.80278558250679
field sum 267427
field sqrsum 1184907
field min 3
field max 5
statistic Basic.rack[3].eps.queue[0] 	dropsum
field count 0
field mean nan
field stddev nan
field sum 0
field sqrsum 0
field min nan
field max nan
statistic Basic.rack[3].eps.queue[1] 	dropsum
field count 0
field mean nan
field stddev nan
field sum 0
field sqrsum 0
field min nan
field max nan
statistic Basic.rack[3].eps.queue[2] 	dropsum
field count 0
field mean nan
field stddev nan
field sum 0
field sqrsum 0
field min nan
field max nan
statistic Basic.rack[3].eps.queue[3] 	dropsum
field count 0
field mean nan
field stddev nan
field sum 0
field sqrsum 0
field min nan
field max nan
statistic Basic.rack[4].node[0].app 	throughput
field count 89138
field mean 44569.5
field stddev 25732.068484675
field sum 3972836091
field sqrsum 2.3608843326507e+014
field min 1
field max 89138
statistic Basic.rack[4].node[0].app 	"End-to-End Delay"
field count 89138
field mean 8.0022944429362e-005
field stddev 0.00015008941219584
field sum 7.1330852205445
field sqrsum 0.0025787846752932
field min 8.496e-007
field max 0.000491355748
statistic Basic.rack[4].node[0].app 	hops
field count 89138
field mean 4.8470798088357
field stddev 0.8347581253645
field sum 432059
field sqrsum 2156337
field min 4
field max 6
statistic Basic.rack[4].node[1].app 	throughput
field count 88843
field mean 44422
field stddev 25646.909319968
field sum 3946583746
field sqrsum 2.3375220869183e+014
field min 1
field max 88843
statistic Basic.rack[4].node[1].app 	"End-to-End Delay"
field count 88843
field mean 8.0463797783894e-005
field stddev 0.00015060091959005
field sum 7.1486451865145
field sqrsum 0.0025902002914152
field min 8.496e-007
field max 0.000524579914
statistic Basic.rack[4].node[1].app 	hops
field count 88843
field mean 4.8368920455185
field stddev 0.83180271375859
field sum 429724
field sqrsum 2139998
field min 4
field max 6
statistic Basic.rack[4].node[2].app 	throughput
field count 88721
field mean 44361
field stddev 25611.690953547
field sum 3935752281
field sqrsum 2.3279056399916e+014
field min 1
field max 88721
statistic Basic.rack[4].node[2].app 	"End-to-End Delay"
field count 88721
field mean 8.0183973963148e-005
field stddev 0.00015024719434334
field sum 7.1140023539845
field sqrsum 0.0025732137254076
field min 8.496e-007
field max 0.000505732092
statistic Basic.rack[4].node[2].app 	hops
field count 88721
field mean 4.8442871473496
field stddev 0.83381143668988
field sum 429790
field sqrsum 2143708
field min 4
field max 6
statistic Basic.rack[4].node[3].app 	throughput
field count 89160
field mean 44580.5
field stddev 25738.419337636
field sum 3974797380
field sqrsum 2.3626328119966e+014
field min 1
field max 89160
statistic Basic.rack[4].node[3].app 	"End-to-End Delay"
field count 89160
field mean 8.0351620389889e-005
field stddev 0.00015040905363181
field sum 7.1641504739625
field sqrsum 0.0025926847616458
field min 8.496e-007
field max 0.000498322268
statistic Basic.rack[4].node[3].app 	hops
field count 89160
field mean 4.8445827725437
field stddev 0.8342844247941
field sum 431943
field sqrsum 2154641
field min 4
field max 6
statistic Basic.rack[4].node[4].app 	throughput
field count 89081
field mean 44541
field stddev 25715.614002003
field sum 3967756821
field sqrsum 2.3563581949994e+014
field min 1
field max 89081
statistic Basic.rack[4].node[4].app 	"End-to-End Delay"
field count 89081
field mean 8.0256006214832e-005
field stddev 0.00015027821735841
field sum 7.1492852896234
field sqrsum 0.0025855150605501
field min 8.496e-007
field max 0.000499574318
statistic Basic.rack[4].node[4].app 	hops
field count 89081
field mean 4.8456460973721
field stddev 0.83462906639927
field sum 431655
field sqrsum 2153701
field min 4
field max 6
statistic Basic.rack[4].node[5].app 	throughput
field count 88535
field mean 44268
field stddev 25557.997378511
field sum 3919267380
field sqrsum 2.3132953141466e+014
field min 1
field max 88535
statistic Basic.rack[4].node[5].app 	"End-to-End Delay"
field count 88535
field mean 8.1571194009934e-005
field stddev 0.00015166603566528
field sum 7.2219056616695
field sqrsum 0.0026256104499224
field min 8.496e-007
field max 0.000525739618
statistic Basic.rack[4].node[5].app 	hops
field count 88535
field mean 4.8347659117863
field stddev 0.83145971609461
field sum 428046
field sqrsum 2130708
field min 4
field max 6
statistic Basic.rack[4].node[6].app 	throughput
field count 88912
field mean 44456.5
field stddev 25666.827904255
field sum 3952716328
field sqrsum 2.342972603422e+014
field min 1
field max 88912
statistic Basic.rack[4].node[6].app 	"End-to-End Delay"
field count 88912
field mean 8.0500217033365e-005
field stddev 0.00015073003042958
field sum 7.1574352968705
field sqrsum 0.0025961923000798
field min 8.496e-007
field max 0.000517246168
statistic Basic.rack[4].node[6].app 	hops
field count 88912
field mean 4.8377496850819
field stddev 0.83326332976538
field sum 430134
field sqrsum 2142614
field min 4
field max 6
statistic Basic.rack[4].node[7].app 	throughput
field count 89009
field mean 44505
field stddev 25694.829392312
field sum 3961345545
field sqrsum 2.3506492419178e+014
field min 1
field max 89009
statistic Basic.rack[4].node[7].app 	"End-to-End Delay"
field count 89009
field mean 7.9888881930452e-005
field stddev 0.00015006324859982
field sum 7.1108294917476
field sqrsum 0.0025724454631719
field min 8.496e-007
field max 0.000508755985
statistic Basic.rack[4].node[7].app 	hops
field count 89009
field mean 4.8400161781393
field stddev 0.8330685011132
field sum 430805
field sqrsum 2146875
field min 4
field max 6
statistic Basic.rack[4].node[8].app 	throughput
field count 89156
field mean 44578.5
field stddev 25737.264637098
field sum 3974440746
field sqrsum 2.3623148424717e+014
field min 1
field max 89156
statistic Basic.rack[4].node[8].app 	"End-to-End Delay"
field count 89156
field mean 8.0639276091035e-005
field stddev 0.00015071284273618
field sum 7.1894752991723
field sqrsum 0.0026048529354896
field min 8.496e-007
field max 0.000503471373
statistic Basic.rack[4].node[8].app 	hops
field count 89156
field mean 4.8434205213334
field stddev 0.83169607491684
field sum 431820
field sqrsum 2153156
field min 4
field max 6
statistic Basic.rack[4].node[9].app 	throughput
field count 88862
field mean 44431.5
field stddev 25652.394147525
field sum 3948271953
field sqrsum 2.3390221094898e+014
field min 1
field max 88862
statistic Basic.rack[4].node[9].app 	"End-to-End Delay"
field count 88862
field mean 8.0518522004394e-005
field stddev 0.00015051008150134
field sum 7.1550369023545
field sqrsum 0.0025891065220855
field min 8.496e-007
field max 0.000513582512
statistic Basic.rack[4].node[9].app 	hops
field count 88862
field mean 4.8449393441516
field stddev 0.83334272848381
field sum 430531
field sqrsum 2147607
field min 4
field max 6
statistic Basic.rack[4].eps.queue[0] 	dropsum
field count 0
field mean nan
field stddev nan
field sum 0
field sqrsum 0
field min nan
field max nan
statistic Basic.rack[4].eps.queue[1] 	dropsum
field count 0
field mean nan
field stddev nan
field sum 0
field sqrsum 0
field min nan
field max nan
statistic Basic.rack[4].eps.queue[2] 	dropsum
field count 0
field mean nan
field stddev nan
field sum 0
field sqrsum 0
field min nan
field max nan
statistic Basic.rack[4].eps.queue[3] 	dropsum
field count 0
field mean nan
field stddev nan
field sum 0
field sqrsum 0
field min nan
field max nan
statistic Basic.rack[5].node[0].app 	throughput
field count 88896
field mean 44448.5
field stddev 25662.209102102
field sum 3951293856
field sqrsum 2.3417079617994e+014
field min 1
field max 88896
statistic Basic.rack[5].node[0].app 	"End-to-End Delay"
field count 88896
field mean 7.7520842512997e-005
field stddev 0.00015501015497874
field sum 6.8912928160354
field sqrsum 0.002670201054589
field min 8.496e-007
field max 0.000512355584
statistic Basic.rack[5].node[0].app 	hops
field count 88896
field mean 4.7191887149028
field stddev 0.44939801858878
field sum 419517
field sqrsum 1997733
field min 4
field max 5
statistic Basic.rack[5].node[1].app 	throughput
field count 88676
field mean 44338.5
field stddev 25598.70057249
field sum 3931760826
field sqrsum 2.3243652592453e+014
field min 1
field max 88676
statistic Basic.rack[5].node[1].app 	"End-to-End Delay"
field count 88676
field mean 7.7743044736404e-005
field stddev 0.00015513405759831
field sum 6.8939422350453
field sqrsum 0.0026700596710411
field min 8.496e-007
field max 0.000514524404
statistic Basic.rack[5].node[1].app 	hops
field count 88676
field mean 4.7211759664396
field stddev 0.44842330390979
field sum 418655
field sqrsum 1994375
field min 4
field max 5
statistic Basic.rack[5].node[2].app 	throughput
field count 88714
field mean 44357.5
field stddev 25609.670227605
field sum 3935131255
field sqrsum 2.3273546781446e+014
field min 1
field max 88714
statistic Basic.rack[5].node[2].app 	"End-to-End Delay"
field count 88714
field mean 7.8293083512944e-005
field stddev 0.00015584545265947
field sum 6.9456926107674
field sqrsum 0.0026984437467647
field min 8.496e-007
field max 0.000519128836
statistic Basic.rack[5].node[2].app 	hops
field count 88714
field mean 4.7157156705819
field stddev 0.45107542939589
field sum 418350
field sqrsum 1990870
field min 4
field max 5
statistic Basic.rack[5].node[3].app 	throughput
field count 89235
field mean 44618
field stddev 25760.069972731
field sum 3981487230
field sqrsum 2.3686000247511e+014
field min 1
field max 89235
statistic Basic.rack[5].node[3].app 	"End-to-End Delay"
field count 89235
field mean 7.7384562849402e-005
field stddev 0.00015488902488113
field sum 6.9054114658664
field sqrsum 0.0026751503428758
field min 8.496e-007
field max 0.00050950352
statistic Basic.rack[5].node[3].app 	hops
field count 89235
field mean 4.7192357258923
field stddev 0.44937507661529
field sum 421121
field sqrsum 2005389
field min 4
field max 5
statistic Basic.rack[5].node[4].app 	throughput
field count 89484
field mean 44742.5
field stddev 25831.950081246
field sum 4003737870
field sqrsum 2.3884832095201e+014
field min 1
field max 89484
statistic Basic.rack[5].node[4].app 	"End-to-End Delay"
field count 89484
field mean 7.7694692490002e-005
field stddev 0.00015524800338729
field sum 6.9524318627754
field sqrsum 0.0026968811813513
field min 8.496e-007
field max 0.000511093473
statistic Basic.rack[5].node[4].app 	hops
field count 89484
field mean 4.7174690447454
field stddev 0.45023269527309
field sum 422138
field sqrsum 2009562
field min 4
field max 5
statistic Basic.rack[5].node[5].app 	throughput
field count 88821
field mean 44411
field stddev 25640.558467007
field sum 3944629431
field sqrsum 2.3357860200371e+014
field min 1
field max 88821
statistic Basic.rack[5].node[5].app 	"End-to-End Delay"
field count 88821
field mean 7.8375904476827e-005
field stddev 0.00015577863949483
field sum 6.9614262115363
field sqrsum 0.0027010016410982
field min 8.496e-007
field max 0.000533727097
statistic Basic.rack[5].node[5].app 	hops
field count 88821
field mean 4.7196045980117
field stddev 0.44919493791467
field sum 419200
field sqrsum 1996380
field min 4
field max 5
statistic Basic.rack[5].node[6].app 	throughput
field count 89649
field mean 44825
field stddev 25879.581478455
field sum 4018516425
field sqrsum 2.4017199216202e+014
field min 1
field max 89649
statistic Basic.rack[5].node[6].app 	"End-to-End Delay"
field count 89649
field mean 7.7563129393248e-005
field stddev 0.00015504340110423
field sum 6.9534569869753
field sqrsum 0.0026943314077567
field min 8.496e-007
field max 0.000503971333
statistic Basic.rack[5].node[6].app 	hops
field count 89649
field mean 4.7178663454138
field stddev 0.45004057011864
field sum 422952
field sqrsum 2013588
field min 4
field max 5
statistic Basic.rack[5].node[7].app 	throughput
field count 89299
field mean 44650
field stddev 25778.545181345
field sum 3987200350
field sqrsum 2.3736999843655e+014
field min 1
field max 89299
statistic Basic.rack[5].node[7].app 	"End-to-End Delay"
field count 89299
field mean 7.8419960941246e-005
field stddev 0.00015588960281203
field sum 7.0028240920923
field sqrsum 0.0027192426346986
field min 8.496e-007
field max 0.000527402134
statistic Basic.rack[5].node[7].app 	hops
field count 89299
field mean 4.7194369477822
field stddev 0.44927684819962
field sum 421441
field sqrsum 2006989
field min 4
field max 5
statistic Basic.rack[5].node[8].app 	throughput
field count 89191
field mean 44596
field stddev 25747.368266809
field sum 3977561836
field sqrsum 2.365098043304e+014
field min 1
field max 89191
statistic Basic.rack[5].node[8].app 	"End-to-End Delay"
field count 89191
field mean 7.9217234610042e-005
field stddev 0.00015657195148227
field sum 7.0654643721042
field sqrsum 0.0027461794194281
field min 8.496e-007
field max 0.000524017307
statistic Basic.rack[5].node[8].app 	hops
field count 89191
field mean 4.7204874931327
field stddev 0.44876221243274
field sum 421025
field sqrsum 2005405
field min 4
field max 5
statistic Basic.rack[5].node[9].app 	throughput
field count 89122
field mean 44561.5
field stddev 25727.449682521
field sum 3971410003
field sqrsum 2.3596132532824e+014
field min 1
field max 89122
statistic Basic.rack[5].node[9].app 	"End-to-End Delay"
field count 89122
field mean 7.8376073804934e-005
field stddev 0.00015575466928055
field sum 6.9850324496434
field sqrsum 0.0027094918336002
field min 8.496e-007
field max 0.000509859899
statistic Basic.rack[5].node[9].app 	hops
field count 89122
field mean 4.7198895895514
field stddev 0.44905548771282
field sum 420646
field sqrsum 2003374
field min 4
field max 5
statistic Basic.rack[5].eps.queue[0] 	dropsum
field count 0
field mean nan
field stddev nan
field sum 0
field sqrsum 0
field min nan
field max nan
statistic Basic.rack[5].eps.queue[1] 	dropsum
field count 0
field mean nan
field stddev nan
field sum 0
field sqrsum 0
field min nan
field max nan
statistic Basic.rack[5].eps.queue[2] 	dropsum
field count 0
field mean nan
field stddev nan
field sum 0
field sqrsum 0
field min nan
field max nan
statistic Basic.rack[5].eps.queue[3] 	dropsum
field count 0
field mean nan
field stddev nan
field sum 0
field sqrsum 0
field min nan
field max nan
statistic Basic.rack[6].node[0].app 	throughput
field count 81208
field mean 40604.5
field stddev 23442.874667299
field sum 3297410236
field sqrsum 1.785184927668e+014
field min 1
field max 81208
statistic Basic.rack[6].node[0].app 	"End-to-End Delay"
field count 81208
field mean 0.00017371976304934
field stddev 0.00020214119344715
field sum 14.107434517711
field sqrsum 0.0057689444506504
field min 8.496e-007
field max 0.00064436073
statistic Basic.rack[6].node[0].app 	hops
field count 81208
field mean 4.903642498276
field stddev 0.71565376624325
field sum 398215
field sqrsum 1994295
field min 4
field max 6
statistic Basic.rack[6].node[1].app 	throughput
field count 81297
field mean 40649
field stddev 23468.566754278
field sum 3304641753
field sqrsum 1.7910607527634e+014
field min 1
field max 81297
statistic Basic.rack[6].node[1].app 	"End-to-End Delay"
field count 81297
field mean 0.00017353830178027
field stddev 0.00020206299432353
field sum 14.108143319831
field sqrsum 0.0057675744989583
field min 8.496e-007
field max 0.000615492033
statistic Basic.rack[6].node[1].app 	hops
field count 81297
field mean 4.9070937426965
field stddev 0.71304237685915
field sum 398932
field sqrsum 1998930
field min 4
field max 6
statistic Basic.rack[6].node[2].app 	throughput
field count 81392
field mean 40696.5
field stddev 23495.990892065
field sum 3312369528
field sqrsum 1.7973469120516e+014
field min 1
field max 81392
statistic Basic.rack[6].node[2].app 	"End-to-End Delay"
field count 81392
field mean 0.00017400428086722
field stddev 0.00020215315606337
field sum 14.162556428345
field sqrsum 0.0057904617918885
field min 8.496e-007
field max 0.000641741009
statistic Basic.rack[6].node[2].app 	hops
field count 81392
field mean 4.9060227049341
field stddev 0.71500905315102
field sum 399311
field sqrsum 2000639
field min 4
field max 6
statistic Basic.rack[6].node[3].app 	throughput
field count 81565
field mean 40783
field stddev 23545.931690351
field sum 3326465395
field sqrsum 1.8088320878392e+014
field min 1
field max 81565
statistic Basic.rack[6].node[3].app 	"End-to-End Delay"
field count 81565
field mean 0.0001734182030614
field stddev 0.00020212146485724
field sum 14.144855732703
field sqrsum 0.0057851166155847
field min 8.496e-007
field max 0.000599077614
statistic Basic.rack[6].node[3].app 	hops
field count 81565
field mean 4.9051799178569
field stddev 0.71624300316648
field sum 400091
field sqrsum 2004361
field min 4
field max 6
statistic Basic.rack[6].node[4].app 	throughput
field count 81245
field mean 40623
field stddev 23453.555647279
field sum 3300415635
field sqrsum 1.787626123156e+014
field min 1
field max 81245
statistic Basic.rack[6].node[4].app 	"End-to-End Delay"
field count 81245
field mean 0.00017267811968974
field stddev 0.00020167879485406
field sum 14.029233834193
field sqrsum 0.0057270874970286
field min 8.496e-007
field max 0.000622934279
statistic Basic.rack[6].node[4].app 	hops
field count 81245
field mean 4.9031571173611
field stddev 0.71201626604043
field sum 398357
field sqrsum 1994395
field min 4
field max 6
statistic Basic.rack[6].node[5].app 	throughput
field count 81631
field mean 40816
field stddev 23564.984249234
field sum 3331850896
field sqrsum 1.8132265761122e+014
field min 1
field max 81631
statistic Basic.rack[6].node[5].app 	"End-to-End Delay"
field count 81631
field mean 0.00017392824478544
field stddev 0.00020206729095947
field sum 14.19793655008
field sqrsum 0.0058024722296097
field min 8.496e-007
field max 0.000601542879
statistic Basic.rack[6].node[5].app 	hops
field count 81631
field mean 4.9036885496931
field stddev 0.71480724550897
field sum 400293
field sqrsum 2004621
field min 4
field max 6
statistic Basic.rack[6].node[6].app 	throughput
field count 81266
field mean 40633.5
field stddev 23459.617825105
field sum 3302122011
field sqrsum 1.7890126560462e+014
field min 1
field max 81266
statistic Basic.rack[6].node[6].app 	"End-to-End Delay"
field count 81266
field mean 0.00017318293302658
field stddev 0.00020189298275587
field sum 14.073884235338
field sqrsum 0.0057497810520921
field min 8.496e-007
field max 0.000613385023
statistic Basic.rack[6].node[6].app 	hops
field count 81266
field mean 4.9025668791376
field stddev 0.71246407065777
field sum 398412
field sqrsum 1994492
field min 4
field max 6
statistic Basic.rack[6].node[7].app 	throughput
field count 81029
field mean 40515
field stddev 23391.201818205
field sum 3282889935
field sqrsum 1.7734061999206e+014
field min 1
field max 81029
statistic Basic.rack[6].node[7].app 	"End-to-End Delay"
field count 81029
field mean 0.00017421779418022
field stddev 0.0002021235404585
field sum 14.116693644629
field sqrsum 0.0057696911120081
field min 8.496e-007
field max 0.00063804139
statistic Basic.rack[6].node[7].app 	hops
field count 81029
field mean 4.9064779276555
field stddev 0.7134426856537
field sum 397567
field sqrsum 1991897
field min 4
field max 6
statistic Basic.rack[6].node[8].app 	throughput
field count 81195
field mean 40598
field stddev 23439.121890549
field sum 3296354610
field sqrsum 1.7843277382417e+014
field min 1
field max 81195
statistic Basic.rack[6].node[8].app 	"End-to-End Delay"
field count 81195
field mean 0.00017372315992414
field stddev 0.00020214447725366
field sum 14.105451970041
field sqrsum 0.0057682245564091
field min 8.496e-007
field max 0.00064766713
statistic Basic.rack[6].node[8].app 	hops
field count 81195
field mean 4.9058439559086
field stddev 0.71560929999077
field sum 398330
field sqrsum 1995724
field min 4
field max 6
statistic Basic.rack[6].node[9].app 	throughput
field count 81095
field mean 40548
field stddev 23410.254377089
field sum 3288240060
field sqrsum 1.7777431452382e+014
field min 1
field max 81095
statistic Basic.rack[6].node[9].app 	"End-to-End Delay"
field count 81095
field mean 0.00017379782762223
field stddev 0.00020207575375207
field sum 14.094134831025
field sqrsum 0.0057609718998228
field min 8.496e-007
field max 0.000611164315
statistic Basic.rack[6].node[9].app 	hops
field count 81095
field mean 4.9033355940564
field stddev 0.71299629915998
field sum 397636
field sqrsum 1990968
field min 4
field max 6
statistic Basic.rack[6].eps.queue[0] 	dropsum
field count 0
field mean nan
field stddev nan
field sum 0
field sqrsum 0
field min nan
field max nan
statistic Basic.rack[6].eps.queue[1] 	dropsum
field count 778854
field mean 389427.5
field stddev 224835.92761657
field sum 303307166085
field sqrsum 1.5748810079147e+017
field min 1
field max 778854
statistic Basic.rack[6].eps.queue[2] 	dropsum
field count 0
field mean nan
field stddev nan
field sum 0
field sqrsum 0
field min nan
field max nan
statistic Basic.rack[6].eps.queue[3] 	dropsum
field count 0
field mean nan
field stddev nan
field sum 0
field sqrsum 0
field min nan
field max nan
statistic Basic.rack[7].node[0].app 	throughput
field count 62734
field mean 31367.5
field stddev 18109.890230663
field sum 1967808745
field sqrsum 82299665142135
field min 1
field max 62734
statistic Basic.rack[7].node[0].app 	"End-to-End Delay"
field count 62734
field mean 0.0004298570856571
field stddev 2.4125786960053e-005
field sum 26.966654411612
field sqrsum 0.011628321443563
field min 8.2475493e-005
field max 0.000629473948
statistic Basic.rack[7].node[0].app 	hops
field count 62734
field mean 4.2802945771033
field stddev 0.80433386218512
field sum 268520
field sqrsum 1189930
field min 3
field max 5
statistic Basic.rack[7].node[1].app 	throughput
field count 62765
field mean 31383
field stddev 18118.839159836
field sum 1969753995
field sqrsum 82421729582115
field min 1
field max 62765
statistic Basic.rack[7].node[1].app 	"End-to-End Delay"
field count 62765
field mean 0.00042979650353213
field stddev 2.4056693340122e-005
field sum 26.976177544194
field sqrsum 0.011630589851327
field min 9.6022292e-005
field max 0.000640631867
statistic Basic.rack[7].node[1].app 	hops
field count 62765
field mean 4.2776069465466
field stddev 0.80454797285478
field sum 268484
field sqrsum 1189096
field min 3
field max 5
statistic Basic.rack[7].node[2].app 	throughput
field count 62913
field mean 31457
field stddev 18161.563079757
field sum 1979054241
field sqrsum 83006152660769
field min 1
field max 62913
statistic Basic.rack[7].node[2].app 	"End-to-End Delay"
field count 62913
field mean 0.00042977957702179
field stddev 2.4180185750372e-005
field sum 27.038722529172
field sqrsum 0.01165747420696
field min 1.4862291e-005
field max 0.000644637774
statistic Basic.rack[7].node[2].app 	hops
field count 62913
field mean 4.283772829145
field stddev 0.80280776829709
field sum 269505
field sqrsum 1195045
field min 3
field max 5
statistic Basic.rack[7].node[3].app 	throughput
field count 62833
field mean 31417
field stddev 18138.469068989
field sum 1974024361
field sqrsum 82689906457929
field min 1
field max 62833
statistic Basic.rack[7].node[3].app 	"End-to-End Delay"
field count 62833
field mean 0.00042996224933129
field stddev 2.4400173360939e-005
field sum 27.015818012233
field sqrsum 0.011653190071146
field min 2.6176e-005
field max 0.00062796429
statistic Basic.rack[7].node[3].app 	hops
field count 62833
field mean 4.2838794900769
field stddev 0.80233379602039
field sum 269169
field sqrsum 1193535
field min 3
field max 5
statistic Basic.rack[7].node[4].app 	throughput
field count 62357
field mean 31179
field stddev 18001.059704917
field sum 1944228903
field sqrsum 80824835879215
field min 1
field max 62357
statistic Basic.rack[7].node[4].app 	"End-to-End Delay"
field count 62357
field mean 0.00042998098970704
field stddev 2.4493922990845e-005
field sum 26.812324575162
field sqrsum 0.011566200480516
field min 2.6176e-005
field max 0.000629317919
statistic Basic.rack[7].node[4].app 	hops
field count 62357
field mean 4.2771140369165
field stddev 0.80339692561399
field sum 266708
field sqrsum 1180988
field min 3
field max 5
statistic Basic.rack[7].node[5].app 	throughput
field count 62923
field mean 31462
field stddev 18164.449831103
field sum 1979683426
field sqrsum 83045740037274
field min 1
field max 62923
statistic Basic.rack[7].node[5].app 	"End-to-End Delay"
field count 62923
field mean 0.0004298778360446
field stddev 2.4024830854083e-005
field sum 27.049203077434
field sqrsum 0.01166417099199
field min 0.00012318927
field max 0.000631263824
statistic Basic.rack[7].node[5].app 	hops
field count 62923
field mean 4.2794844492475
field stddev 0.80331971570807
field sum 269278
field sqrsum 1192976
field min 3
field max 5
statistic Basic.rack[7].node[6].app 	throughput
field count 62811
field mean 31406
field stddev 18132.118216028
field sum 1972642266
field sqrsum 82603079793906
field min 1
field max 62811
statistic Basic.rack[7].node[6].app 	"End-to-End Delay"
field count 62811
field mean 0.00042970723634556
field stddev 2.4078078230342e-005
field sum 26.990341222101
field sqrsum 0.01163435927397
field min 1.9009572e-005
field max 0.000636578399
statistic Basic.rack[7].node[6].app 	hops
field count 62811
field mean 4.2819410612791
field stddev 0.80267925955768
field sum 268953
field sqrsum 1192109
field min 3
field max 5
statistic Basic.rack[7].node[7].app 	throughput
field count 62859
field mean 31430
field stddev 18145.974622489
field sum 1975658370
field sqrsum 82792598206010
field min 1
field max 62859
statistic Basic.rack[7].node[7].app 	"End-to-End Delay"
field count 62859
field mean 0.00043005527597014
field stddev 2.4343589947751e-005
field sum 27.032844592207
field sqrsum 0.011662867744094
field min 2.1473e-005
field max 0.000632313054
statistic Basic.rack[7].node[7].app 	hops
field count 62859
field mean 4.2788622154345
field stddev 0.80228070871496
field sum 268965
field sqrsum 1191323
field min 3
field max 5
statistic Basic.rack[7].node[8].app 	throughput
field count 62495
field mean 31248
field stddev 18040.896873493
field sum 1952843760
field sqrsum 81362631468720
field min 1
field max 62495
statistic Basic.rack[7].node[8].app 	"End-to-End Delay"
field count 62495
field mean 0.00042982761148596
field stddev 2.4094663929809e-005
field sum 26.862076579815
field sqrsum 0.011582343284406
field min 1.1422549e-005
field max 0.000629898969
statistic Basic.rack[7].node[8].app 	hops
field count 62495
field mean 4.2804864389151
field stddev 0.80329546159653
field sum 267509
field sqrsum 1185395
field min 3
field max 5
statistic Basic.rack[7].node[9].app 	throughput
field count 62715
field mean 31358
field stddev 18104.405403106
field sum 1966616970
field sqrsum 82224911054690
field min 1
field max 62715
statistic Basic.rack[7].node[9].app 	"End-to-End Delay"
field count 62715
field mean 0.00042975181421419
field stddev 2.4013711604482e-005
field sum 26.951885028443
field sqrsum 0.011618786038916
field min 6.443707e-005
field max 0.000654238477
statistic Basic.rack[7].node[9].app 	hops
field count 62715
field mean 4.279040102049
field stddev 0.80373682991691
field sum 268360
field sqrsum 1188836
field min 3
field max 5
statistic Basic.rack[7].eps.queue[0] 	dropsum
field count 0
field mean nan
field stddev nan
field sum 0
field sqrsum 0
field min nan
field max nan
statistic Basic.rack[7].eps.queue[1] 	dropsum
field count 0
field mean nan
field stddev nan
field sum 0
field sqrsum 0
field min nan
field max nan
statistic Basic.rack[7].eps.queue[2] 	dropsum
field count 0
field mean nan
field stddev nan
field sum 0
field sqrsum 0
field min nan
field max nan
statistic Basic.rack[7].eps.queue[3] 	dropsum
field count 0
field mean nan
field stddev nan
field sum 0
field sqrsum 0
field min nan
field max nan
statistic Basic.rack[8].node[0].app 	throughput
field count 88145
field mean 44073
field stddev 25445.414076018
field sum 3884814585
field sqrsum 2.2828594933474e+014
field min 1
field max 88145
statistic Basic.rack[8].node[0].app 	"End-to-End Delay"
field count 88145
field mean 8.0228597677526e-005
field stddev 0.00015029296294637
field sum 7.0717497422855
field sqrsum 0.002558351007894
field min 8.496e-007
field max 0.000507789766
statistic Basic.rack[8].node[0].app 	hops
field count 88145
field mean 4.8413296273186
field stddev 0.83153245652979
field sum 426739
field sqrsum 2126931
field min 4
field max 6
statistic Basic.rack[8].node[1].app 	throughput
field count 88699
field mean 44350
field stddev 25605.340100586
field sum 3933800650
field sqrsum 2.3261743383645e+014
field min 1
field max 88699
statistic Basic.rack[8].node[1].app 	"End-to-End Delay"
field count 88699
field mean 8.041586854362e-005
field stddev 0.00015038490314388
field sum 7.1328071239505
field sqrsum 0.0025795510623901
field min 8.496e-007
field max 0.000498857157
statistic Basic.rack[8].node[1].app 	hops
field count 88699
field mean 4.8462327647437
field stddev 0.83352228130309
field sum 429856
field sqrsum 2144806
field min 4
field max 6
statistic Basic.rack[8].node[2].app 	throughput
field count 88998
field mean 44499.5
field stddev 25691.653965831
field sum 3960366501
field sqrsum 2.349777853595e+014
field min 1
field max 88998
statistic Basic.rack[8].node[2].app 	"End-to-End Delay"
field count 88998
field mean 8.1113448896947e-005
field stddev 0.00015095180801563
field sum 7.2189347249305
field sqrsum 0.0026134782360996
field min 8.496e-007
field max 0.00049860802
statistic Basic.rack[8].node[2].app 	hops
field count 88998
field mean 4.8462886806445
field stddev 0.83374958225695
field sum 431310
field sqrsum 2152118
field min 4
field max 6
statistic Basic.rack[8].node[3].app 	throughput
field count 88692
field mean 44346.5
field stddev 25603.319374644
field sum 3933179778
field sqrsum 2.3256236497351e+014
field min 1
field max 88692
statistic Basic.rack[8].node[3].app 	"End-to-End Delay"
field count 88692
field mean 7.9521670927157e-005
field stddev 0.00014956457721116
field sum 7.0529360378714
field sqrsum 0.0025448401490977
field min 8.496e-007
field max 0.000514477289
statistic Basic.rack[8].node[3].app 	hops
field count 88692
field mean 4.8443038831011
field stddev 0.83257543786425
field sum 429651
field sqrsum 2142839
field min 4
field max 6
statistic Basic.rack[8].node[4].app 	throughput
field count 89132
field mean 44566.5
field stddev 25730.336433867
field sum 3972301278
field sqrsum 2.3604076244089e+014
field min 1
field max 89132
statistic Basic.rack[8].node[4].app 	"End-to-End Delay"
field count 89132
field mean 7.9812760120568e-005
field stddev 0.00014984768748402
field sum 7.1138709350665
field sqrsum 0.0025691545121697
field min 8.496e-007
field max 0.000510962373
statistic Basic.rack[8].node[4].app 	hops
field count 89132
field mean 4.8459251447292
field stddev 0.83336404420199
field sum 431927
field sqrsum 2154987
field min 4
field max 6
statistic Basic.rack[8].node[5].app 	throughput
field count 88995
field mean 44498
field stddev 25690.787940427
field sum 3960099510
field sqrsum 2.3495402396147e+014
field min 1
field max 88995
statistic Basic.rack[8].node[5].app 	"End-to-End Delay"
field count 88995
field mean 7.9844218721901e-005
field stddev 0.00014995745515718
field sum 7.1057362451555
field sqrsum 0.0025685812493007
field min 8.496e-007
field max 0.000507912378
statistic Basic.rack[8].node[5].app 	hops
field count 88995
field mean 4.8425641889994
field stddev 0.83238741564148
field sum 430964
field sqrsum 2148632
field min 4
field max 6
statistic Basic.rack[8].node[6].app 	throughput
field count 89015
field mean 44508
field stddev 25696.561443119
field sum 3961879620
field sqrsum 2.3511246354274e+014
field min 1
field max 89015
statistic Basic.rack[8].node[6].app 	"End-to-End Delay"
field count 89015
field mean 8.0057519187221e-005
field stddev 0.00015007011446433
field sum 7.1263200704505
field sqrsum 0.0025752032940491
field min 8.496e-007
field max 0.000509418014
statistic Basic.rack[8].node[6].app 	hops
field count 89015
field mean 4.8447565017132
field stddev 0.83252686081132
field sum 431256
field sqrsum 2151026
field min 4
field max 6
statistic Basic.rack[8].node[7].app 	throughput
field count 89177
field mean 44589
field stddev 25743.326814924
field sum 3976313253
field sqrsum 2.363984500796e+014
field min 1
field max 89177
statistic Basic.rack[8].node[7].app 	"End-to-End Delay"
field count 89177
field mean 7.9295906315458e-005
field stddev 0.00014934048699729
field sum 7.0713710374936
field sqrsum 0.0025495857436132
field min 8.496e-007
field max 0.000496719924
statistic Basic.rack[8].node[7].app 	hops
field count 89177
field mean 4.8465075075412
field stddev 0.8339737326338
field sum 432197
field sqrsum 2156669
field min 4
field max 6
statistic Basic.rack[8].node[8].app 	throughput
field count 88441
field mean 44221
field stddev 25530.861915859
field sum 3910949461
field sqrsum 2.3059349117002e+014
field min 1
field max 88441
statistic Basic.rack[8].node[8].app 	"End-to-End Delay"
field count 88441
field mean 7.979742305014e-005
field stddev 0.00014982186057455
field sum 7.0573638919775
field sqrsum 0.0025483358633953
field min 8.496e-007
field max 0.000497529459
statistic Basic.rack[8].node[8].app 	hops
field count 88441
field mean 4.8473897852806
field stddev 0.83212861765333
field sum 428708
field sqrsum 2139354
field min 4
field max 6
statistic Basic.rack[8].node[9].app 	throughput
field count 89407
field mean 44704
field stddev 25809.722095882
field sum 3996850528
field sqrsum 2.3823227572144e+014
field min 1
field max 89407
statistic Basic.rack[8].node[9].app 	"End-to-End Delay"
field count 89407
field mean 8.0151610723886e-005
field stddev 0.00015022555408383
field sum 7.1661150599905
field sqrsum 0.0025920649797152
field min 8.496e-007
field max 0.000497615636
statistic Basic.rack[8].node[9].app 	hops
field count 89407
field mean 4.8404599192457
field stddev 0.8335267226655
field sum 432771
field sqrsum 2156927
field min 4
field max 6
statistic Basic.rack[8].eps.queue[0] 	dropsum
field count 0
field mean nan
field stddev nan
field sum 0
field sqrsum 0
field min nan
field max nan
statistic Basic.rack[8].eps.queue[1] 	dropsum
field count 0
field mean nan
field stddev nan
field sum 0
field sqrsum 0
field min nan
field max nan
statistic Basic.rack[8].eps.queue[2] 	dropsum
field count 0
field mean nan
field stddev nan
field sum 0
field sqrsum 0
field min nan
field max nan
statistic Basic.rack[8].eps.queue[3] 	dropsum
field count 0
field mean nan
field stddev nan
field sum 0
field sqrsum 0
field min nan
field max nan
statistic Basic.rack[9].node[0].app 	throughput
field count 88944
field mean 44472.5
field stddev 25676.065508563
field sum 3955562040
field sqrsum 2.3455032524452e+014
field min 1
field max 88944
statistic Basic.rack[9].node[0].app 	"End-to-End Delay"
field count 88944
field mean 7.7236717393027e-005
field stddev 0.00015475161280758
field sum 6.8697425918054
field sqrsum 0.0026606088159339
field min 8.496e-007
field max 0.000524933069
statistic Basic.rack[9].node[0].app 	hops
field count 88944
field mean 4.7195538765965
field stddev 0.44921972808011
field sum 419776
field sqrsum 1999104
field min 4
field max 5
statistic Basic.rack[9].node[1].app 	throughput
field count 88854
field mean 44427.5
field stddev 25650.084746449
field sum 3947561085
field sqrsum 2.3383904428476e+014
field min 1
field max 88854
statistic Basic.rack[9].node[1].app 	"End-to-End Delay"
field count 88854
field mean 7.7454572325202e-005
field stddev 0.00015494677333919
field sum 6.8821485693835
field sqrsum 0.0026662813528148
field min 8.496e-007
field max 0.000524901571
statistic Basic.rack[9].node[1].app 	hops
field count 88854
field mean 4.7191572692282
field stddev 0.44941335586043
field sum 419316
field sqrsum 1996764
field min 4
field max 5
statistic Basic.rack[9].node[2].app 	throughput
field count 89653
field mean 44827
field stddev 25880.736178994
field sum 4018875031
field sqrsum 2.4020414172784e+014
field min 1
field max 89653
statistic Basic.rack[9].node[2].app 	"End-to-End Delay"
field count 89653
field mean 7.8355144443925e-005
field stddev 0.00015583499777867
field sum 7.0247737648312
field sqrsum 0.002727585328777
field min 8.496e-007
field max 0.000510799669
statistic Basic.rack[9].node[2].app 	hops
field count 89653
field mean 4.7202993764849
field stddev 0.44885457772537
field sum 423189
field sqrsum 2015641
field min 4
field max 5
statistic Basic.rack[9].node[3].app 	throughput
field count 88821
field mean 44411
field stddev 25640.558467007
field sum 3944629431
field sqrsum 2.3357860200371e+014
field min 1
field max 88821
statistic Basic.rack[9].node[3].app 	"End-to-End Delay"
field count 88821
field mean 7.758817840806e-005
field stddev 0.0001551530706618
field sum 6.8914595943823
field sqrsum 0.0026728130558254
field min 8.496e-007
field max 0.000528910302
statistic Basic.rack[9].node[3].app 	hops
field count 88821
field mean 4.7173191024645
field stddev 0.45030510841306
field sum 418997
field sqrsum 1994553
field min 4
field max 5
statistic Basic.rack[9].node[4].app 	throughput
field count 89060
field mean 44530.5
field stddev 25709.551824176
field sum 3965886330
field sqrsum 2.3546921299531e+014
field min 1
field max 89060
statistic Basic.rack[9].node[4].app 	"End-to-End Delay"
field count 89060
field mean 7.7044891527907e-005
field stddev 0.00015455771909795
field sum 6.8616180394754
field sqrsum 0.0026561018941964
field min 8.496e-007
field max 0.000519086952
statistic Basic.rack[9].node[4].app 	hops
field count 89060
field mean 4.7188300022457
field stddev 0.44957279671942
field sum 420259
field sqrsum 2001131
field min 4
field max 5
statistic Basic.rack[9].node[5].app 	throughput
field count 88663
field mean 44332
field stddev 25594.94779574
field sum 3930608116
field sqrsum 2.3233431512864e+014
field min 1
field max 88663
statistic Basic.rack[9].node[5].app 	"End-to-End Delay"
field count 88663
field mean 7.9117978692062e-005
field stddev 0.00015643879384429
field sum 7.0148373447743
field sqrsum 0.0027248334085816
field min 8.496e-007
field max 0.000513165188
statistic Basic.rack[9].node[5].app 	hops
field count 88663
field mean 4.7207064953814
field stddev 0.44865455886307
field sum 418552
field sqrsum 1993708
field min 4
field max 5
statistic Basic.rack[9].node[6].app 	throughput
field count 89112
field mean 44556.5
field stddev 25724.562931175
field sum 3970518828
field sqrsum 2.358819060401e+014
field min 1
field max 89112
statistic Basic.rack[9].node[6].app 	"End-to-End Delay"
field count 89112
field mean 7.7905150182863e-005
field stddev 0.00015544422583464
field sum 6.9422837430953
field sqrsum 0.0026940204940676
field min 8.496e-007
field max 0.000514019805
statistic Basic.rack[9].node[6].app 	hops
field count 89112
field mean 4.7182870993806
field stddev 0.44983665148116
field sum 420456
field sqrsum 2001864
field min 4
field max 5
statistic Basic.rack[9].node[7].app 	throughput
field count 88450
field mean 44225.5
field stddev 25533.459992071
field sum 3911745475
field sqrsum 2.3066389542432e+014
field min 1
field max 88450
statistic Basic.rack[9].node[7].app 	"End-to-End Delay"
field count 88450
field mean 7.7924355891175e-005
field stddev 0.00015541369068039
field sum 6.8924092785745
field sqrsum 0.002673431979098
field min 8.496e-007
field max 0.000522603163
statistic Basic.rack[9].node[7].app 	hops
field count 88450
field mean 4.7182362916902
field stddev 0.44986132197322
field sum 417328
field sqrsum 1986952
field min 4
field max 5
statistic Basic.rack[9].node[8].app 	throughput
field count 89306
field mean 44653.5
field stddev 25780.565907288
field sum 3987825471
field sqrsum 2.3742582361724e+014
field min 1
field max 89306
statistic Basic.rack[9].node[8].app 	"End-to-End Delay"
field count 89306
field mean 7.7709665080682e-005
field stddev 0.00015525885928458
field sum 6.9399393496954
field sqrsum 0.002692025374513
field min 8.496e-007
field max 0.000528358573
statistic Basic.rack[9].node[8].app 	hops
field count 89306
field mean 4.7158757530289
field stddev 0.45099882130226
field sum 421156
field sqrsum 2004284
field min 4
field max 5
statistic Basic.rack[9].node[9].app 	throughput
field count 89047
field mean 44524
field stddev 25705.799047426
field sum 3964728628
field sqrsum 2.3536611500122e+014
field min 1
field max 89047
statistic Basic.rack[9].node[9].app 	"End-to-End Delay"
field count 89047
field mean 7.790604122009e-005
field stddev 0.00015539560581266
field sum 6.9372992525254
field sqrsum 0.0026907220132851
field min 8.496e-007
field max 0.00051197929
statistic Basic.rack[9].node[9].app 	hops
field count 89047
field mean 4.7179803923771
field stddev 0.44998535806306
field sum 420122
field sqrsum 2000158
field min 4
field max 5
statistic Basic.rack[9].eps.queue[0] 	dropsum
field count 0
field mean nan
field stddev nan
field sum 0
field sqrsum 0
field min nan
field max nan
statistic Basic.rack[9].eps.queue[1] 	dropsum
field count 0
field mean nan
field stddev nan
field sum 0
field sqrsum 0
field min nan
field max nan
statistic Basic.rack[9].eps.queue[2] 	dropsum
field count 0
field mean nan
field stddev nan
field sum 0
field sqrsum 0
field min nan
field max nan
statistic Basic.rack[9].eps.queue[3] 	dropsum
field count 0
field mean nan
field stddev nan
field sum 0
field sqrsum 0
field min nan
field max nan
statistic Basic.rack[10].node[0].app 	throughput
field count 81635
field mean 40818
field stddev 23566.138949773
field sum 3332177430
field sqrsum 1.8134931372451e+014
field min 1
field max 81635
statistic Basic.rack[10].node[0].app 	"End-to-End Delay"
field count 81635
field mean 0.00017391009960681
field stddev 0.00020221499343903
field sum 14.197150981402
field sqrsum 0.0058071159634681
field min 8.496e-007
field max 0.000618245316
statistic Basic.rack[10].node[0].app 	hops
field count 81635
field mean 4.9112145525816
field stddev 0.71624224473699
field sum 400927
field sqrsum 2010917
field min 4
field max 6
statistic Basic.rack[10].node[1].app 	throughput
field count 81255
field mean 40628
field stddev 23456.442398625
field sum 3301228140
field sqrsum 1.7882862875318e+014
field min 1
field max 81255
statistic Basic.rack[10].node[1].app 	"End-to-End Delay"
field count 81255
field mean 0.00017295260603324
field stddev 0.00020203376131722
field sum 14.053264003231
field sqrsum 0.0057471452110434
field min 8.496e-007
field max 0.000609468596
statistic Basic.rack[10].node[1].app 	hops
field count 81255
field mean 4.9055688880684
field stddev 0.71678233984476
field sum 398602
field sqrsum 1997116
field min 4
field max 6
statistic Basic.rack[10].node[2].app 	throughput
field count 81332
field mean 40666.5
field stddev 23478.670383989
field sum 3307487778
field sqrsum 1.7933749980279e+014
field min 1
field max 81332
statistic Basic.rack[10].node[2].app 	"End-to-End Delay"
field count 81332
field mean 0.00017336869836323
field stddev 0.00020210328946002
field sum 14.100422975278
field sqrsum 0.0057665968258615
field min 8.496e-007
field max 0.000621027996
statistic Basic.rack[10].node[2].app 	hops
field count 81332
field mean 4.9046992573649
field stddev 0.71522251677433
field sum 398909
field sqrsum 1998133
field min 4
field max 6
statistic Basic.rack[10].node[3].app 	throughput
field count 81441
field mean 40721
field stddev 23510.13597366
field sum 3316358961
field sqrsum 1.8005949888152e+014
field min 1
field max 81441
statistic Basic.rack[10].node[3].app 	"End-to-End Delay"
field count 81441
field mean 0.00017277341213473
field stddev 0.00020197794398691
field sum 14.070839457665
field sqrsum 0.0057534190626695
field min 8.496e-007
field max 0.000633114712
statistic Basic.rack[10].node[3].app 	hops
field count 81441
field mean 4.9048390859641
field stddev 0.71646115587036
field sum 399455
field sqrsum 2001067
field min 4
field max 6
statistic Basic.rack[10].node[4].app 	throughput
field count 81648
field mean 40824.5
field stddev 23569.891726523
field sum 3333238776
field sqrsum 1.8143596413482e+014
field min 1
field max 81648
statistic Basic.rack[10].node[4].app 	"End-to-End Delay"
field count 81648
field mean 0.00017416685689438
field stddev 0.00020213245226274
field sum 14.220375531712
field sqrsum 0.0058126127198766
field min 8.496e-007
field max 0.000612626562
statistic Basic.rack[10].node[4].app 	hops
field count 81648
field mean 4.9113144228885
field stddev 0.71514422022727
field sum 400999
field sqrsum 2011189
field min 4
field max 6
statistic Basic.rack[10].node[5].app 	throughput
field count 81786
field mean 40893.5
field stddev 23609.728895097
field sum 3344515791
field sqrsum 1.8235749382708e+014
field min 1
field max 81786
statistic Basic.rack[10].node[5].app 	"End-to-End Delay"
field count 81786
field mean 0.00017495766057316
field stddev 0.00020239734665005
field sum 14.309087227637
field sqrsum 0.0058537812651498
field min 8.496e-007
field max 0.000635673623
statistic Basic.rack[10].node[5].app 	hops
field count 81786
field mean 4.910962756462
field stddev 0.71526582052792
field sum 401648
field sqrsum 2014320
field min 4
field max 6
statistic Basic.rack[10].node[6].app 	throughput
field count 81459
field mean 40730
field stddev 23515.332126083
field sum 3317825070
field sqrsum 1.8017891419311e+014
field min 1
field max 81459
statistic Basic.rack[10].node[6].app 	"End-to-End Delay"
field count 81459
field mean 0.00017374803298598
field stddev 0.00020217256386439
field sum 14.153341019005
field sqrsum 0.005788608729647
field min 8.496e-007
field max 0.000626942213
statistic Basic.rack[10].node[6].app 	hops
field count 81459
field mean 4.9081992167839
field stddev 0.7145890793991
field sum 399817
field sqrsum 2003977
field min 4
field max 6
statistic Basic.rack[10].node[7].app 	throughput
field count 81903
field mean 40952
field stddev 23643.503885846
field sum 3354091656
field sqrsum 1.8314123063146e+014
field min 1
field max 81903
statistic Basic.rack[10].node[7].app 	"End-to-End Delay"
field count 81903
field mean 0.00017327591061237
field stddev 0.0002021141157326
field sum 14.191816906885
field sqrsum 0.0058048061802646
field min 8.496e-007
field max 0.000633250495
statistic Basic.rack[10].node[7].app 	hops
field count 81903
field mean 4.9066456662149
field stddev 0.71672148512131
field sum 401869
field sqrsum 2013901
field min 4
field max 6
statistic Basic.rack[10].node[8].app 	throughput
field count 81606
field mean 40803.5
field stddev 23557.767370869
field sum 3329810421
field sqrsum 1.8115611608089e+014
field min 1
field max 81606
statistic Basic.rack[10].node[8].app 	"End-to-End Delay"
field count 81606
field mean 0.00017234342792649
field stddev 0.00020185110061165
field sum 14.064257779369
field sqrsum 0.0057487856486321
field min 8.496e-007
field max 0.000641116969
statistic Basic.rack[10].node[8].app 	hops
field count 81606
field mean 4.9025316765924
field stddev 0.7150533064033
field sum 400076
field sqrsum 2003110
field min 4
field max 6
statistic Basic.rack[10].node[9].app 	throughput
field count 81580
field mean 40790.5
field stddev 23550.26181737
field sum 3327688990
field sqrsum 1.8098302109913e+014
field min 1
field max 81580
statistic Basic.rack[10].node[9].app 	"End-to-End Delay"
field count 81580
field mean 0.00017276231280376
field stddev 0.00020181360535069
field sum 14.093949478531
field sqrsum 0.0057575124795521
field min 8.496e-007
field max 0.000614252682
statistic Basic.rack[10].node[9].app 	hops
field count 81580
field mean 4.9048909046335
field stddev 0.71624892457925
field sum 400141
field sqrsum 2004499
field min 4
field max 6
statistic Basic.rack[10].eps.queue[0] 	dropsum
field count 0
field mean nan
field stddev nan
field sum 0
field sqrsum 0
field min nan
field max nan
statistic Basic.rack[10].eps.queue[1] 	dropsum
field count 777529
field mean 388765
field stddev 224453.43306324
field sum 302276061685
field sqrsum 1.5668570340238e+017
field min 1
field max 777529
statistic Basic.rack[10].eps.queue[2] 	dropsum
field count 0
field mean nan
field stddev nan
field sum 0
field sqrsum 0
field min nan
field max nan
statistic Basic.rack[10].eps.queue[3] 	dropsum
field count 0
field mean nan
field stddev nan
field sum 0
field sqrsum 0
field min nan
field max nan
statistic Basic.rack[11].node[0].app 	throughput
field count 62940
field mean 31470.5
field stddev 18169.357308392
field sum 1980753270
field sqrsum 83113067460290
field min 1
field max 62940
statistic Basic.rack[11].node[0].app 	"End-to-End Delay"
field count 62940
field mean 0.00042981278324121
field stddev 2.3999784829131e-005
field sum 27.052416577202
field sqrsum 0.011663726676404
field min 2.3556442e-005
field max 0.000635700985
statistic Basic.rack[11].node[0].app 	hops
field count 62940
field mean 4.274801398157
field stddev 0.80425941328389
field sum 269056
field sqrsum 1190872
field min 3
field max 5
statistic Basic.rack[11].node[1].app 	throughput
field count 62776
field mean 31388.5
field stddev 18122.014586316
field sum 1970444476
field sqrsum 82465071765076
field min 1
field max 62776
statistic Basic.rack[11].node[1].app 	"End-to-End Delay"
field count 62776
field mean 0.00042977054091761
field stddev 2.3998321582825e-005
field sum 26.979275476644
field sqrsum 0.011631051157933
field min 3.9245115e-005
field max 0.000601912306
statistic Basic.rack[11].node[1].app 	hops
field count 62776
field mean 4.2759175481076
field stddev 0.80511934450028
field sum 268425
field sqrsum 1188455
field min 3
field max 5
statistic Basic.rack[11].node[2].app 	throughput
field count 63102
field mean 31551.5
field stddev 18216.122680197
field sum 1990962753
field sqrsum 83756484747455
field min 1
field max 63102
statistic Basic.rack[11].node[2].app 	"End-to-End Delay"
field count 63102
field mean 0.00042967434534758
field stddev 2.4249019786998e-005
field sum 27.113310540123
field sqrsum 0.011686998288564
field min 1.3768135e-005
field max 0.000611553176
statistic Basic.rack[11].node[2].app 	hops
field count 63102
field mean 4.2732243035086
field stddev 0.80652734590743
field sum 269649
field sqrsum 1193317
field min 3
field max 5
[...]
field sum 420283
field sqrsum 2001547
field min 4
field max 5
statistic Basic.rack[13].node[2].app 	throughput
field count 88843
field mean 44422
field stddev 25646.909319968
field sum 3946583746
field sqrsum 2.3375220869183e+014
field min 1
field max 88843
statistic Basic.rack[13].node[2].app 	"End-to-End Delay"
field count 88843
field mean 7.7317884924534e-005
field stddev 0.00015476199533439
field sum 6.8691528503504
field sqrsum 0.0026589875609203
field min 8.496e-007
field max 0.000519568932
statistic Basic.rack[13].node[2].app 	hops
field count 88843
field mean 4.7215199846921
field stddev 0.448253452887
field sum 419474
field sqrsum 1998406
field min 4
field max 5
statistic Basic.rack[13].node[3].app 	throughput
field count 89465
field mean 44733
field stddev 25826.465253689
field sum 4002037845
field sqrsum 2.3869621121456e+014
field min 1
field max 89465
statistic Basic.rack[13].node[3].app 	"End-to-End Delay"
field count 89465
field mean 7.855447948711e-005
field stddev 0.00015601540742576
field sum 7.0278765073143
field sqrsum 0.0027296971700703
field min 8.496e-007
field max 0.000503768622
statistic Basic.rack[13].node[3].app 	hops
field count 89465
field mean 4.7190856759627
field stddev 0.449448244513
field sum 422193
field sqrsum 2010437
field min 4
field max 5
statistic Basic.rack[13].node[4].app 	throughput
field count 89234
field mean 44617.5
field stddev 25759.781297596
field sum 3981397995
field sqrsum 2.3685203958988e+014
field min 1
field max 89234
statistic Basic.rack[13].node[4].app 	"End-to-End Delay"
field count 89234
field mean 7.7890905066806e-005
field stddev 0.0001553688490335
field sum 6.9505170227314
field sqrsum 0.0026954202134975
field min 8.496e-007
field max 0.000528345252
statistic Basic.rack[13].node[4].app 	hops
field count 89234
field mean 4.7187619068965
field stddev 0.44960593126941
field sum 421074
field sqrsum 2004986
field min 4
field max 5
statistic Basic.rack[13].node[5].app 	throughput
field count 88876
field mean 44438.5
field stddev 25656.43559941
field sum 3949516126
field sqrsum 2.3401277998163e+014
field min 1
field max 88876
statistic Basic.rack[13].node[5].app 	"End-to-End Delay"
field count 88876
field mean 7.7698231518254e-005
field stddev 0.00015521904184607
field sum 6.9055080244164
field sqrsum 0.0026778067770567
field min 8.496e-007
field max 0.0005155276
statistic Basic.rack[13].node[5].app 	hops
field count 88876
field mean 4.7206444934516
field stddev 0.44868504841205
field sum 419552
field sqrsum 1998448
field min 4
field max 5
statistic Basic.rack[13].node[6].app 	throughput
field count 89159
field mean 44580
field stddev 25738.130662502
field sum 3974708220
field sqrsum 2.3625533169406e+014
field min 1
field max 89159
statistic Basic.rack[13].node[6].app 	"End-to-End Delay"
field count 89159
field mean 7.7516656301589e-005
field stddev 0.00015501856800446
field sum 6.9113075591934
field sqrsum 0.0026782756341035
field min 8.496e-007
field max 0.000525475928
statistic Basic.rack[13].node[6].app 	hops
field count 89159
field mean 4.7190524792786
field stddev 0.44946443367886
field sum 420746
field sqrsum 2003534
field min 4
field max 5
statistic Basic.rack[13].node[7].app 	throughput
field count 88680
field mean 44340.5
field stddev 25599.855273028
field sum 3932115540
field sqrsum 2.3246798142998e+014
field min 1
field max 88680
statistic Basic.rack[13].node[7].app 	"End-to-End Delay"
field count 88680
field mean 7.8660679712668e-005
field stddev 0.00015610759005537
field sum 6.9756290769194
field sqrsum 0.0027097776804265
field min 8.496e-007
field max 0.000512275705
statistic Basic.rack[13].node[7].app 	hops
field count 88680
field mean 4.7169598556608
field stddev 0.4504783117751
field sum 418300
field sqrsum 1991100
field min 4
field max 5
statistic Basic.rack[13].node[8].app 	throughput
field count 89063
field mean 44532
field stddev 25710.41784958
field sum 3966153516
field sqrsum 2.3549300911484e+014
field min 1
field max 89063
statistic Basic.rack[13].node[8].app 	"End-to-End Delay"
field count 89063
field mean 7.770484373362e-005
field stddev 0.00015510965251191
field sum 6.9206264974474
field sqrsum 0.0026805092417001
field min 8.496e-007
field max 0.000508688402
statistic Basic.rack[13].node[8].app 	hops
field count 89063
field mean 4.7189854372747
field stddev 0.44949710438891
field sum 420287
field sqrsum 2001323
field min 4
field max 5
statistic Basic.rack[13].node[9].app 	throughput
field count 88578
field mean 44289.5
field stddev 25570.410409299
field sum 3923075331
field sqrsum 2.3166675213799e+014
field min 1
field max 88578
statistic Basic.rack[13].node[9].app 	"End-to-End Delay"
field count 88578
field mean 7.8377871194928e-005
field stddev 0.00015576292084746
field sum 6.9425550747043
field sqrsum 0.0026932056128648
field min 8.496e-007
field max 0.000506297162
statistic Basic.rack[13].node[9].app 	hops
field count 88578
field mean 4.7229560387455
field stddev 0.44754090985094
field sum 418350
field sqrsum 1993590
field min 4
field max 5
statistic Basic.rack[13].eps.queue[0] 	dropsum
field count 0
field mean nan
field stddev nan
field sum 0
field sqrsum 0
field min nan
field max nan
statistic Basic.rack[13].eps.queue[1] 	dropsum
field count 0
field mean nan
field stddev nan
field sum 0
field sqrsum 0
field min nan
field max nan
statistic Basic.rack[13].eps.queue[2] 	dropsum
field count 0
field mean nan
field stddev nan
field sum 0
field sqrsum 0
field min nan
field max nan
statistic Basic.rack[13].eps.queue[3] 	dropsum
field count 0
field mean nan
field stddev nan
field sum 0
field sqrsum 0
field min nan
field max nan
statistic Basic.rack[14].node[0].app 	throughput
field count 81125
field mean 40563
field stddev 23418.914631127
field sum 3290673375
field sqrsum 1.7797168192238e+014
field min 1
field max 81125
statistic Basic.rack[14].node[0].app 	"End-to-End Delay"
field count 81125
field mean 0.00017414253784216
field stddev 0.00020219774757572
field sum 14.127313382445
field sqrsum 0.0057768340716223
field min 8.496e-007
field max 0.000625098251
statistic Basic.rack[14].node[0].app 	hops
field count 81125
field mean 4.9099537750385
field stddev 0.71547046575018
field sum 398320
field sqrsum 1997260
field min 4
field max 6
statistic Basic.rack[14].node[1].app 	throughput
field count 81229
field mean 40615
field stddev 23448.936845125
field sum 3299115835
field sqrsum 1.7865701981276e+014
field min 1
field max 81229
statistic Basic.rack[14].node[1].app 	"End-to-End Delay"
field count 81229
field mean 0.00017363220572256
field stddev 0.00020200658517307
field sum 14.103970438638
field sqrsum 0.0057635469120058
field min 8.496e-007
field max 0.000623852699
statistic Basic.rack[14].node[1].app 	hops
field count 81229
field mean 4.9057110145391
field stddev 0.71530174035521
field sum 398486
field sqrsum 1996418
field min 4
field max 6
statistic Basic.rack[14].node[2].app 	throughput
field count 81224
field mean 40612.5
field stddev 23447.493469452
field sum 3298709700
field sqrsum 1.786240306851e+014
field min 1
field max 81224
statistic Basic.rack[14].node[2].app 	"End-to-End Delay"
field count 81224
field mean 0.0001737604347807
field stddev 0.00020215227060987
field sum 14.113517554628
field sqrsum 0.0057715927436425
field min 8.496e-007
field max 0.000615310795
statistic Basic.rack[14].node[2].app 	hops
field count 81224
field mean 4.9063084802521
field stddev 0.7155317002819
field sum 398510
field sqrsum 1996798
field min 4
field max 6
statistic Basic.rack[14].node[3].app 	throughput
field count 81013
field mean 40507
field stddev 23386.583016051
field sum 3281593591
field sqrsum 1.7723558825632e+014
field min 1
field max 81013
statistic Basic.rack[14].node[3].app 	"End-to-End Delay"
field count 81013
field mean 0.00017290548882033
field stddev 0.00020178615710163
field sum 14.007592365801
field sqrsum 0.0057206081260686
field min 8.496e-007
field max 0.000616953814
statistic Basic.rack[14].node[3].app 	hops
field count 81013
field mean 4.9037561872786
field stddev 0.71274543894321
field sum 397268
field sqrsum 1989260
field min 4
field max 6
statistic Basic.rack[14].node[4].app 	throughput
field count 81465
field mean 40733
field stddev 23517.064176891
field sum 3318313845
field sqrsum 1.8021873102656e+014
field min 1
field max 81465
statistic Basic.rack[14].node[4].app 	"End-to-End Delay"
field count 81465
field mean 0.00017207722302408
field stddev 0.00020166039690003
field sum 14.018270973657
field sqrsum 0.0057251147595286
field min 8.496e-007
field max 0.000611288212
statistic Basic.rack[14].node[4].app 	hops
field count 81465
field mean 4.9002639170196
field stddev 0.71390219427838
field sum 399200
field sqrsum 1997704
field min 4
field max 6
statistic Basic.rack[14].node[5].app 	throughput
field count 81165
field mean 40583
field stddev 23430.461636511
field sum 3293919195
field sqrsum 1.7823506561452e+014
field min 1
field max 81165
statistic Basic.rack[14].node[5].app 	"End-to-End Delay"
field count 81165
field mean 0.00017321634600639
field stddev 0.00020206660714191
field sum 14.059104723609
field sqrsum 0.0057492670296645
field min 8.496e-007
field max 0.000606397411
statistic Basic.rack[14].node[5].app 	hops
field count 81165
field mean 4.9068810447853
field stddev 0.71621502432753
field sum 398267
field sqrsum 1995883
field min 4
field max 6
statistic Basic.rack[14].node[6].app 	throughput
field count 81045
field mean 40523
field stddev 23395.820620359
field sum 3284186535
field sqrsum 1.774456932149e+014
field min 1
field max 81045
statistic Basic.rack[14].node[6].app 	"End-to-End Delay"
field count 81045
field mean 0.00017325979741263
field stddev 0.00020200734586696
field sum 14.041840281307
field sqrsum 0.0057400462995437
field min 8.496e-007
field max 0.000600976733
statistic Basic.rack[14].node[6].app 	hops
field count 81045
field mean 4.9059164661608
field stddev 0.71661943982143
field sum 397600
field sqrsum 1992212
field min 4
field max 6
statistic Basic.rack[14].node[7].app 	throughput
field count 80958
field mean 40479.5
field stddev 23370.705883648
field sum 3277139361
field sqrsum 1.7687485797168e+014
field min 1
field max 80958
statistic Basic.rack[14].node[7].app 	"End-to-End Delay"
field count 80958
field mean 0.00017342949177155
field stddev 0.00020200261065198
field sum 14.040504794841
field sqrsum 0.0057384924249602
field min 8.496e-007
field max 0.000608281903
statistic Basic.rack[14].node[7].app 	hops
field count 80958
field mean 4.9044072234986
field stddev 0.71489603651839
field sum 397051
field sqrsum 1988675
field min 4
field max 6
statistic Basic.rack[14].node[8].app 	throughput
field count 81475
field mean 40738
field stddev 23519.950928237
field sum 3319128550
field sqrsum 1.8028510545035e+014
field min 1
field max 81475
statistic Basic.rack[14].node[8].app 	"End-to-End Delay"
field count 81475
field mean 0.00017306395866631
field stddev 0.00020198468175682
field sum 14.100386032338
field sqrsum 0.0057642295330252
field min 8.496e-007
field max 0.000601971549
statistic Basic.rack[14].node[8].app 	hops
field count 81475
field mean 4.902694077938
field stddev 0.71617503278813
field sum 399447
field sqrsum 2000155
field min 4
field max 6
statistic Basic.rack[14].node[9].app 	throughput
field count 81353
field mean 40677
field stddev 23484.732561816
field sum 3309195981
field sqrsum 1.7947645016019e+014
field min 1
field max 81353
statistic Basic.rack[14].node[9].app 	"End-to-End Delay"
field count 81353
field mean 0.00017270967507712
field stddev 0.00020173080541442
field sum 14.050450196549
field sqrsum 0.0057372941861228
field min 8.496e-007
field max 0.000607126206
statistic Basic.rack[14].node[9].app 	hops
field count 81353
field mean 4.9036421521026
field stddev 0.7135240468432
field sum 398926
field sqrsum 1997608
field min 4
field max 6
statistic Basic.rack[14].eps.queue[0] 	dropsum
field count 0
field mean nan
field stddev nan
field sum 0
field sqrsum 0
field min nan
field max nan
statistic Basic.rack[14].eps.queue[1] 	dropsum
field count 780305
field mean 390153
field stddev 225254.79523687
field sum 304438336665
field sqrsum 1.583699390068e+017
field min 1
field max 780305
statistic Basic.rack[14].eps.queue[2] 	dropsum
field count 0
field mean nan
field stddev nan
field sum 0
field sqrsum 0
field min nan
field max nan
statistic Basic.rack[14].eps.queue[3] 	dropsum
field count 0
field mean nan
field stddev nan
field sum 0
field sqrsum 0
field min nan
field max nan
statistic Basic.rack[15].node[0].app 	throughput
field count 62742
field mean 31371.5
field stddev 18112.19963174
field sum 1968310653
field sqrsum 82331154097235
field min 1
field max 62742
statistic Basic.rack[15].node[0].app 	"End-to-End Delay"
field count 62742
field mean 0.00042970598442158
field stddev 2.4482695171696e-005
field sum 26.960612874579
field sqrsum 0.011622743799529
field min 2.4897599e-005
field max 0.000637787637
statistic Basic.rack[15].node[0].app 	hops
field count 62742
field mean 4.2748557585031
field stddev 0.80580519570802
field sum 268213
field sqrsum 1187311
field min 3
field max 5
statistic Basic.rack[15].node[1].app 	throughput
field count 62174
field mean 31087.5
field stddev 17948.232155285
field sum 1932834225
field sqrsum 80115334348175
field min 1
field max 62174
statistic Basic.rack[15].node[1].app 	"End-to-End Delay"
field count 62174
field mean 0.00042963459656276
field stddev 2.4221034579474e-005
field sum 26.712101406693
field sqrsum 0.011512917231129
field min 1.6107401e-005
field max 0.000656230638
statistic Basic.rack[15].node[1].app 	hops
field count 62174
field mean 4.2724129057162
field stddev 0.80601320633666
field sum 265633
field sqrsum 1175285
field min 3
field max 5
statistic Basic.rack[15].node[2].app 	throughput
field count 62373
field mean 31187
field stddev 18005.678507071
field sum 1945226751
field sqrsum 80887067168999
field min 1
field max 62373
statistic Basic.rack[15].node[2].app 	"End-to-End Delay"
field count 62373
field mean 0.00042968376914342
field stddev 2.4362536414655e-005
field sum 26.800665732783
field sqrsum 0.011552830919153
field min 1.3492054e-005
field max 0.000633830806
statistic Basic.rack[15].node[2].app 	hops
field count 62373
field mean 4.2705497571064
field stddev 0.80667977863618
field sum 266367
field sqrsum 1178121
field min 3
field max 5
statistic Basic.rack[15].node[3].app 	throughput
field count 62747
field mean 31374
field stddev 18113.643007413
field sum 1968624378
field sqrsum 82350838772370
field min 1
field max 62747
statistic Basic.rack[15].node[3].app 	"End-to-End Delay"
field count 62747
field mean 0.00042984088211198
field stddev 2.4334641421239e-005
field sum 26.97122582988
field sqrsum 0.01163049210067
field min 1.7584e-005
field max 0.000617165289
statistic Basic.rack[15].node[3].app 	hops
field count 62747
field mean 4.2802524423478
field stddev 0.80398753617766
field sum 268573
field sqrsum 1190119
field min 3
field max 5
statistic Basic.rack[15].node[4].app 	throughput
field count 62861
field mean 31431
field stddev 18146.551972758
field sum 1975784091
field sqrsum 82800501090931
field min 1
field max 62861
statistic Basic.rack[15].node[4].app 	"End-to-End Delay"
field count 62861
field mean 0.00042972752280658
field stddev 2.4305690891218e-005
field sum 27.013101811144
field sqrsum 0.011645408913711
field min 2.2326087e-005
field max 0.000661589831
statistic Basic.rack[15].node[4].app 	hops
field count 62861
field mean 4.2752581091615
field stddev 0.80606009800564
field sum 268747
field sqrsum 1189805
field min 3
field max 5
statistic Basic.rack[15].node[5].app 	throughput
field count 62835
field mean 31418
field stddev 18139.046419258
field sum 1974150030
field sqrsum 82697802806710
field min 1
field max 62835
statistic Basic.rack[15].node[5].app 	"End-to-End Delay"
field count 62835
field mean 0.00042980997539933
field stddev 2.4280858387308e-005
field sum 27.007109804217
field sqrsum 0.011644969618877
field min 4.8615569e-005
field max 0.000630124916
statistic Basic.rack[15].node[5].app 	hops
field count 62835
field mean 4.2738601098114
field stddev 0.80424257026363
field sum 268548
field sqrsum 1188378
field min 3
field max 5
statistic Basic.rack[15].node[6].app 	throughput
field count 62463
field mean 31232
field stddev 18031.659269185
field sum 1950844416
field sqrsum 81237713452544
field min 1
field max 62463
statistic Basic.rack[15].node[6].app 	"End-to-End Delay"
field count 62463
field mean 0.00042981072877009
field stddev 2.4093214629282e-005
field sum 26.847267551166
field sqrsum 0.011575501760247
field min 9.7667723e-005
field max 0.000618245348
statistic Basic.rack[15].node[6].app 	hops
field count 62463
field mean 4.2765637257256
field stddev 0.80309272230868
field sum 267127
field sqrsum 1182671
field min 3
field max 5
statistic Basic.rack[15].node[7].app 	throughput
field count 62877
field mean 31439
field stddev 18151.170774911
field sum 1976790003
field sqrsum 82863742275755
field min 1
field max 62877
statistic Basic.rack[15].node[7].app 	"End-to-End Delay"
field count 62877
field mean 0.00042968359680315
field stddev 2.4190792270773e-005
field sum 27.017215516192
field sqrsum 0.011645649023627
field min 7.4053085e-005
field max 0.000634965836
statistic Basic.rack[15].node[7].app 	hops
field count 62877
field mean 4.2771919779888
field stddev 0.80322586039344
field sum 268937
field sqrsum 1190861
field min 3
field max 5
statistic Basic.rack[15].node[8].app 	throughput
field count 62036
field mean 31018.5
field stddev 17908.394986709
field sum 1924263666
field sqrsum 79583055277206
field min 1
field max 62036
statistic Basic.rack[15].node[8].app 	"End-to-End Delay"
field count 62036
field mean 0.00042975256437607
field stddev 2.4220097071621e-005
field sum 26.660130083634
field sqrsum 0.011493649813834
field min 7.9713777e-005
field max 0.000642609644
statistic Basic.rack[15].node[8].app 	hops
field count 62036
field mean 4.2801760268231
field stddev 0.80398841038475
field sum 265525
field sqrsum 1176593
field min 3
field max 5
statistic Basic.rack[15].node[9].app 	throughput
field count 62222
field mean 31111.5
field stddev 17962.088561746
field sum 1935819753
field sqrsum 80301029720695
field min 1
field max 62222
statistic Basic.rack[15].node[9].app 	"End-to-End Delay"
field count 62222
field mean 0.00042969988522212
field stddev 2.4384136134317e-005
field sum 26.736786258291
field sqrsum 0.011525789727814
field min 7.5872838e-005
field max 0.000625104599
statistic Basic.rack[15].node[9].app 	hops
field count 62222
field mean 4.2844170872039
field stddev 0.80357031455998
field sum 266585
field sqrsum 1182339
field min 3
field max 5
statistic Basic.rack[15].eps.queue[0] 	dropsum
field count 0
field mean nan
field stddev nan
field sum 0
field sqrsum 0
field min nan
field max nan
statistic Basic.rack[15].eps.queue[1] 	dropsum
field count 0
field mean nan
field stddev nan
field sum 0
field sqrsum 0
field min nan
field max nan
statistic Basic.rack[15].eps.queue[2] 	dropsum
field count 0
field mean nan
field stddev nan
field sum 0
field sqrsum 0
field min nan
field max nan
statistic Basic.rack[15].eps.queue[3] 	dropsum
field count 0
field mean nan
field stddev nan
field sum 0
field sqrsum 0
field min nan
field max nan
