version 2
run Basic-8-20180510-16:02:29-24032
attr configname Basic
attr datetime 20180510-16:02:29
attr experiment Basic
attr inifile omnetpp.ini
attr iterationvars "$0=exponential(0.5 ms), $1=6, $2=2"
attr iterationvarsf exponential(0.5_ms),6,2-
attr measurement "$0=exponential(0.5 ms), $1=6, $2=2"
attr network Networks.Basic
attr processid 24032
attr repetition 0
attr replication #0
attr resultdir results
attr runnumber 8
attr seedset 8
param **.frameCapacity 50
param **.packetLength "1024 bytes"
param **.pattern 6
param **.sendIaTime "exponential(0.5 ms)"
param **.tp 2

statistic Basic.rack[0].node[0].app 	throughput
field count 19969
field mean 9985
field stddev 5764.6980984841
field sum 199390465
field sqrsum 2654485260545
field min 1
field max 19969
statistic Basic.rack[0].node[0].app 	"End-to-End Delay"
field count 19969
field mean 2.9239403565678e-005
field stddev 1.1494408023178e-005
field sum 0.58388164980302
field sqrsum 1.9710551623945e-005
field min 9.4416e-006
field max 8.235813e-005
statistic Basic.rack[0].node[0].app 	hops
field count 19969
field mean 6.3312133807401
field stddev 1.437523597559
field sum 126428
field sqrsum 841706
field min 4
field max 9
statistic Basic.rack[0].node[1].app 	throughput
field count 20001
field mean 10001
field stddev 5773.9357027941
field sum 200030001
field sqrsum 2667266710001
field min 1
field max 20001
statistic Basic.rack[0].node[1].app 	"End-to-End Delay"
field count 20001
field mean 2.9247133591721e-005
field stddev 1.1518042119823e-005
field sum 0.58497191896802
field sqrsum 1.9762057746944e-005
field min 9.4416e-006
field max 9.6376615e-005
statistic Basic.rack[0].node[1].app 	hops
field count 20001
field mean 6.3320833958302
field stddev 1.4365636443419
field sum 126648
field sqrsum 843220
field min 4
field max 9
statistic Basic.rack[0].node[2].app 	throughput
field count 20110
field mean 10055.5
field stddev 5805.4012924747
field sum 202216105
field sqrsum 2711111319735
field min 1
field max 20110
statistic Basic.rack[0].node[2].app 	"End-to-End Delay"
field count 20110
field mean 2.9322684517356e-005
field stddev 1.1532233515779e-005
field sum 0.58967918564402
field sqrsum 1.9965321097015e-005
field min 9.4416e-006
field max 0.000100919776
statistic Basic.rack[0].node[2].app 	hops
field count 20110
field mean 6.3341621084038
field stddev 1.4349215942609
field sum 127380
field sqrsum 848250
field min 4
field max 9
statistic Basic.rack[0].node[3].app 	throughput
field count 19958
field mean 9979.5
field stddev 5761.5226720026
field sum 199170861
field sqrsum 2650101086179
field min 1
field max 19958
statistic Basic.rack[0].node[3].app 	"End-to-End Delay"
field count 19958
field mean 2.9250342562181e-005
field stddev 1.1546211452633e-005
field sum 0.58377833685602
field sqrsum 1.9736283766644e-005
field min 9.4416e-006
field max 8.8767937e-005
statistic Basic.rack[0].node[3].app 	hops
field count 19958
field mean 6.3296422487223
field stddev 1.432349530112
field sum 126327
field sqrsum 840549
field min 4
field max 9
statistic Basic.rack[0].node[4].app 	throughput
field count 20374
field mean 10187.5
field stddev 5881.611528031
field sum 207560125
field sqrsum 2819289177875
field min 1
field max 20374
statistic Basic.rack[0].node[4].app 	"End-to-End Delay"
field count 20374
field mean 2.9224318908217e-005
field stddev 1.1498588757413e-005
field sum 0.59541627343602
field sqrsum 2.0094303069972e-005
field min 9.4416e-006
field max 8.3890591e-005
statistic Basic.rack[0].node[4].app 	hops
field count 20374
field mean 6.331402768234
field stddev 1.4273480176073
field sum 128996
field sqrsum 858232
field min 4
field max 9
statistic Basic.rack[0].node[5].app 	throughput
field count 20048
field mean 10024.5
field stddev 5787.5034341243
field sum 200971176
field sqrsum 2686113748024
field min 1
field max 20048
statistic Basic.rack[0].node[5].app 	"End-to-End Delay"
field count 20048
field mean 2.9349006745562e-005
field stddev 1.1511686186916e-005
field sum 0.58838888723502
field sqrsum 1.9925236186982e-005
field min 9.4416e-006
field max 8.9038489e-005
statistic Basic.rack[0].node[5].app 	hops
field count 20048
field mean 6.3384377494014
field stddev 1.4388432365432
field sum 127073
field sqrsum 846947
field min 4
field max 9
statistic Basic.rack[0].node[6].app 	throughput
field count 20033
field mean 10017
field stddev 5783.173307104
field sum 200670561
field sqrsum 2680089122529
field min 1
field max 20033
statistic Basic.rack[0].node[6].app 	"End-to-End Delay"
field count 20033
field mean 2.9357392000351e-005
field stddev 1.1537084206845e-005
field sum 0.58811663394302
field sqrsum 1.9931916142493e-005
field min 9.4416e-006
field max 0.000113773575
statistic Basic.rack[0].node[6].app 	hops
field count 20033
field mean 6.3601058253881
field stddev 1.4298037930304
field sum 127412
field sqrsum 851306
field min 4
field max 9
statistic Basic.rack[0].node[7].app 	throughput
field count 20005
field mean 10003
field stddev 5775.0904033328
field sum 200110015
field sqrsum 2668867270055
field min 1
field max 20005
statistic Basic.rack[0].node[7].app 	"End-to-End Delay"
field count 20005
field mean 2.9309963157912e-005
field stddev 1.1454831346063e-005
field sum 0.58634581297402
field sqrsum 1.9810562252044e-005
field min 9.4416e-006
field max 9.1539062e-005
statistic Basic.rack[0].node[7].app 	hops
field count 20005
field mean 6.3370657335666
field stddev 1.4256934339382
field sum 126773
field sqrsum 844029
field min 4
field max 9
statistic Basic.rack[0].node[8].app 	throughput
field count 20034
field mean 10017.5
field stddev 5783.4619822387
field sum 200690595
field sqrsum 2680490483685
field min 1
field max 20034
statistic Basic.rack[0].node[8].app 	"End-to-End Delay"
field count 20034
field mean 2.9208548970401e-005
field stddev 1.1555454962158e-005
field sum 0.58516407007302
field sqrsum 1.9766770625896e-005
field min 9.4416e-006
field max 0.00010184988
statistic Basic.rack[0].node[8].app 	hops
field count 20034
field mean 6.3299890186683
field stddev 1.4348432495852
field sum 126815
field sqrsum 843981
field min 4
field max 9
statistic Basic.rack[0].node[9].app 	throughput
field count 19969
field mean 9985
field stddev 5764.6980984841
field sum 199390465
field sqrsum 2654485260545
field min 1
field max 19969
statistic Basic.rack[0].node[9].app 	"End-to-End Delay"
field count 19969
field mean 2.907692456718e-005
field stddev 1.1586256005641e-005
field sum 0.58063710668202
field sqrsum 1.9563672193961e-005
field min 9.4416e-006
field max 9.0207728e-005
statistic Basic.rack[0].node[9].app 	hops
field count 19969
field mean 6.321698632881
field stddev 1.4416642578806
field sum 126238
field sqrsum 839540
field min 4
field max 9
statistic Basic.rack[0].eps.queue[0] 	dropsum
field count 0
field mean nan
field stddev nan
field sum 0
field sqrsum 0
field min nan
field max nan
statistic Basic.rack[0].eps.queue[1] 	dropsum
field count 0
field mean nan
field stddev nan
field sum 0
field sqrsum 0
field min nan
field max nan
statistic Basic.rack[0].eps.queue[2] 	dropsum
field count 0
field mean nan
field stddev nan
field sum 0
field sqrsum 0
field min nan
field max nan
statistic Basic.rack[0].eps.queue[3] 	dropsum
field count 0
field mean nan
field stddev nan
field sum 0
field sqrsum 0
field min nan
field max nan
statistic Basic.rack[1].node[0].app 	throughput
field count 19832
field mean 9916.5
field stddev 5725.1496050322
field sum 196664028
field sqrsum 2600226223540
field min 1
field max 19832
statistic Basic.rack[1].node[0].app 	"End-to-End Delay"
field count 19832
field mean 2.2485920195141e-005
field stddev 1.1828409474217e-005
field sum 0.44594076931003
field sqrsum 1.2801968959513e-005
field min 8.496e-007
field max 8.2208375e-005
statistic Basic.rack[1].node[0].app 	hops
field count 19832
field mean 5.7750605082695
field stddev 1.1606290977509
field sum 114531
field sqrsum 688137
field min 4
field max 8
statistic Basic.rack[1].node[1].app 	throughput
field count 19974
field mean 9987.5
field stddev 5766.1414741576
field sum 199490325
field sqrsum 2656479664475
field min 1
field max 19974
statistic Basic.rack[1].node[1].app 	"End-to-End Delay"
field count 19974
field mean 2.2219421604137e-005
field stddev 1.1816837559697e-005
field sum 0.44381072712103
field sqrsum 1.2650200440038e-005
field min 8.496e-007
field max 9.1297199e-005
statistic Basic.rack[1].node[1].app 	hops
field count 19974
field mean 5.7358566135977
field stddev 1.1638073202912
field sum 114568
field sqrsum 684198
field min 4
field max 8
statistic Basic.rack[1].node[2].app 	throughput
field count 20134
field mean 10067.5
field stddev 5812.3294957071
field sum 202699045
field sqrsum 2720829281035
field min 1
field max 20134
statistic Basic.rack[1].node[2].app 	"End-to-End Delay"
field count 20134
field mean 2.2361027803965e-005
field stddev 1.1831557180342e-005
field sum 0.45021693380503
field sqrsum 1.2885646384991e-005
field min 8.496e-007
field max 8.6565669e-005
statistic Basic.rack[1].node[2].app 	hops
field count 20134
field mean 5.7531042018476
field stddev 1.172154981146
field sum 115833
field sqrsum 694061
field min 4
field max 8
statistic Basic.rack[1].node[3].app 	throughput
field count 19994
field mean 9997.5
field stddev 5771.9149768513
field sum 199890015
field sqrsum 2664467269945
field min 1
field max 19994
statistic Basic.rack[1].node[3].app 	"End-to-End Delay"
field count 19994
field mean 2.2259435335802e-005
field stddev 1.178598782038e-005
field sum 0.44505515010403
field sqrsum 1.2683894146087e-005
field min 8.496e-007
field max 8.6737551e-005
statistic Basic.rack[1].node[3].app 	hops
field count 19994
field mean 5.7513253976193
field stddev 1.1724165599541
field sum 114992
field sqrsum 688838
field min 4
field max 8
statistic Basic.rack[1].node[4].app 	throughput
field count 20033
field mean 10017
field stddev 5783.173307104
field sum 200670561
field sqrsum 2680089122529
field min 1
field max 20033
statistic Basic.rack[1].node[4].app 	"End-to-End Delay"
field count 20033
field mean 2.2279118190537e-005
field stddev 1.1784414357063e-005
field sum 0.44631757471103
field sqrsum 1.2725454349776e-005
field min 8.496e-007
field max 7.8035152e-005
statistic Basic.rack[1].node[4].app 	hops
field count 20033
field mean 5.7420256576649
field stddev 1.1658322204822
field sum 115030
field sqrsum 687732
field min 4
field max 8
statistic Basic.rack[1].node[5].app 	throughput
field count 20049
field mean 10025
field stddev 5787.7921092589
field sum 200991225
field sqrsum 2686515710425
field min 1
field max 20049
statistic Basic.rack[1].node[5].app 	"End-to-End Delay"
field count 20049
field mean 2.2283283071077e-005
field stddev 1.177094540559e-005
field sum 0.44675754229203
field sqrsum 1.2732978541335e-005
field min 8.496e-007
field max 7.534038e-005
statistic Basic.rack[1].node[5].app 	hops
field count 20049
field mean 5.7475684572797
field stddev 1.1633246408405
field sum 115233
field sqrsum 689441
field min 4
field max 8
statistic Basic.rack[1].node[6].app 	throughput
field count 20123
field mean 10062
field stddev 5809.1540692256
field sum 202477626
field sqrsum 2716372337874
field min 1
field max 20123
statistic Basic.rack[1].node[6].app 	"End-to-End Delay"
field count 20123
field mean 2.2377997329177e-005
field stddev 1.1867464337318e-005
field sum 0.45031244025503
field sqrsum 1.2911006859868e-005
field min 8.496e-007
field max 8.7313391e-005
statistic Basic.rack[1].node[6].app 	hops
field count 20123
field mean 5.7395517566963
field stddev 1.1584958569944
field sum 115497
field sqrsum 689907
field min 4
field max 8
statistic Basic.rack[1].node[7].app 	throughput
field count 20047
field mean 10024
field stddev 5787.2147589896
field sum 200951128
field sqrsum 2685711825720
field min 1
field max 20047
statistic Basic.rack[1].node[7].app 	"End-to-End Delay"
field count 20047
field mean 2.2425459232455e-005
field stddev 1.1905188375758e-005
field sum 0.44956318123303
field sqrsum 1.2922850739872e-005
field min 8.496e-007
field max 8.2506174e-005
statistic Basic.rack[1].node[7].app 	hops
field count 20047
field mean 5.7613109193396
field stddev 1.1666675093505
field sum 115497
field sqrsum 692699
field min 4
field max 8
statistic Basic.rack[1].node[8].app 	throughput
field count 19961
field mean 9981
field stddev 5762.3886974067
field sum 199230741
field sqrsum 2651296290981
field min 1
field max 19961
statistic Basic.rack[1].node[8].app 	"End-to-End Delay"
field count 19961
field mean 2.216992854777e-005
field stddev 1.192540352368e-005
field sum 0.44253394374203
field sqrsum 1.2649562286807e-005
field min 8.496e-007
field max 8.0309824e-005
statistic Basic.rack[1].node[8].app 	hops
field count 19961
field mean 5.7419467962527
field stddev 1.170310921371
field sum 114615
field sqrsum 685451
field min 4
field max 8
statistic Basic.rack[1].node[9].app 	throughput
field count 19622
field mean 9811.5
field stddev 5664.5278267478
field sum 192521253
field sqrsum 2518498857995
field min 1
field max 19622
statistic Basic.rack[1].node[9].app 	"End-to-End Delay"
field count 19622
field mean 2.230205700469e-005
field stddev 1.1873471683264e-005
field sum 0.43761096254603
field sqrsum 1.2525780062845e-005
field min 8.496e-007
field max 8.7862939e-005
statistic Basic.rack[1].node[9].app 	hops
field count 19622
field mean 5.7346345938233
field stddev 1.1696526716103
field sum 112525
field sqrsum 672133
field min 4
field max 8
statistic Basic.rack[1].eps.queue[0] 	dropsum
field count 0
field mean nan
field stddev nan
field sum 0
field sqrsum 0
field min nan
field max nan
statistic Basic.rack[1].eps.queue[1] 	dropsum
field count 0
field mean nan
field stddev nan
field sum 0
field sqrsum 0
field min nan
field max nan
statistic Basic.rack[1].eps.queue[2] 	dropsum
field count 0
field mean nan
field stddev nan
field sum 0
field sqrsum 0
field min nan
field max nan
statistic Basic.rack[1].eps.queue[3] 	dropsum
field count 0
field mean nan
field stddev nan
field sum 0
field sqrsum 0
field min nan
field max nan
statistic Basic.rack[2].node[0].app 	throughput
field count 19890
field mean 9945.5
field stddev 5741.892762844
field sum 197815995
field sqrsum 2623106032365
field min 1
field max 19890
statistic Basic.rack[2].node[0].app 	"End-to-End Delay"
field count 19890
field mean 1.6623109959276e-005
field stddev 9.3586509748398e-006
field sum 0.33063365708999
field sqrsum 7.238124736786e-006
field min 8.496e-007
field max 7.507805e-005
statistic Basic.rack[2].node[0].app 	hops
field count 19890
field mean 5.0682252388135
field stddev 1.0347771044222
field sum 100807
field sqrsum 532209
field min 3
field max 7
statistic Basic.rack[2].node[1].app 	throughput
field count 19693
field mean 9847
field stddev 5685.0237613106
field sum 193916971
field sqrsum 2545935912259
field min 1
field max 19693
statistic Basic.rack[2].node[1].app 	"End-to-End Delay"
field count 19693
field mean 1.6783327071903e-005
field stddev 9.3550344270496e-006
field sum 0.33051406002699
field sqrsum 7.2705038198288e-006
field min 8.496e-007
field max 7.4510523e-005
statistic Basic.rack[2].node[1].app 	hops
field count 19693
field mean 5.0839384552887
field stddev 1.0360221777272
field sum 100118
field sqrsum 530130
field min 3
field max 7
statistic Basic.rack[2].node[2].app 	throughput
field count 20012
field mean 10006.5
field stddev 5777.1111292756
field sum 200250078
field sqrsum 2671669790650
field min 1
field max 20012
statistic Basic.rack[2].node[2].app 	"End-to-End Delay"
field count 20012
field mean 1.6692800263491e-005
field stddev 9.3537534554317e-006
field sum 0.33405631887299
field sqrsum 7.3271519015448e-006
field min 8.496e-007
field max 6.091468e-005
statistic Basic.rack[2].node[2].app 	hops
field count 20012
field mean 5.0756546072357
field stddev 1.0351249346024
field sum 101574
field sqrsum 536996
field min 3
field max 7
statistic Basic.rack[2].node[3].app 	throughput
field count 20101
field mean 10051
field stddev 5802.8032162625
field sum 202035151
field sqrsum 2707473058551
field min 1
field max 20101
statistic Basic.rack[2].node[3].app 	"End-to-End Delay"
field count 20101
field mean 1.6826997940102e-005
field stddev 9.3966523327277e-006
field sum 0.33823948559399
field sqrsum 7.4663263361006e-006
field min 8.496e-007
field max 7.1371169e-005
statistic Basic.rack[2].node[3].app 	hops
field count 20101
field mean 5.0891995423113
field stddev 1.0357073968896
field sum 102298
field sqrsum 542176
field min 3
field max 7
statistic Basic.rack[2].node[4].app 	throughput
field count 20131
field mean 10066
field stddev 5811.463470303
field sum 202638646
field sqrsum 2719613267966
field min 1
field max 20131
statistic Basic.rack[2].node[4].app 	"End-to-End Delay"
field count 20131
field mean 1.6790691802543e-005
field stddev 9.4003849829937e-006
field sum 0.33801341667699
field sqrsum 7.4543116020354e-006
field min 8.496e-007
field max 7.6420861e-005
statistic Basic.rack[2].node[4].app 	hops
field count 20131
field mean 5.0784362426109
field stddev 1.0386746200637
field sum 102234
field sqrsum 540906
field min 3
field max 7
statistic Basic.rack[2].node[5].app 	throughput
field count 19960
field mean 9980.5
field stddev 5762.100022272
field sum 199210780
field sqrsum 2650897849460
field min 1
field max 19960
statistic Basic.rack[2].node[5].app 	"End-to-End Delay"
field count 19960
field mean 1.6842968591182e-005
field stddev 9.4590763854547e-006
field sum 0.33618565307999
field sqrsum 7.4481784777809e-006
field min 8.496e-007
field max 7.9486973e-005
statistic Basic.rack[2].node[5].app 	hops
field count 19960
field mean 5.0846693386774
field stddev 1.0414744415285
field sum 101490
field sqrsum 537692
field min 3
field max 7
statistic Basic.rack[2].node[6].app 	throughput
field count 19966
field mean 9983.5
field stddev 5763.8320730801
field sum 199330561
field sqrsum 2653289097471
field min 1
field max 19966
statistic Basic.rack[2].node[6].app 	"End-to-End Delay"
field count 19966
field mean 1.6818170615746e-005
field stddev 9.4212532870541e-006
field sum 0.33579159451399
field sqrsum 7.4194939973739e-006
field min 8.496e-007
field max 7.4818439e-005
statistic Basic.rack[2].node[6].app 	hops
field count 19966
field mean 5.088550535911
field stddev 1.0355910960569
field sum 101598
field sqrsum 538398
field min 3
field max 7
statistic Basic.rack[2].node[7].app 	throughput
field count 20174
field mean 10087.5
field stddev 5823.8765010944
field sum 203505225
field sqrsum 2737077441175
field min 1
field max 20174
statistic Basic.rack[2].node[7].app 	"End-to-End Delay"
field count 20174
field mean 1.675872789303e-005
field stddev 9.4363610417334e-006
field sum 0.33809057651399
field sqrsum 7.4622709385744e-006
field min 8.496e-007
field max 7.5804003e-005
statistic Basic.rack[2].node[7].app 	hops
field count 20174
field mean 5.0758897590959
field stddev 1.0377978502921
field sum 102401
field sqrsum 541503
field min 3
field max 7
statistic Basic.rack[2].node[8].app 	throughput
field count 19819
field mean 9910
field stddev 5721.3968282812
field sum 196406290
field sqrsum 2595116309770
field min 1
field max 19819
statistic Basic.rack[2].node[8].app 	"End-to-End Delay"
field count 19819
field mean 1.6779582490287e-005
field stddev 9.4423817481775e-006
field sum 0.33255454537499
field sqrsum 7.3470710279054e-006
field min 8.496e-007
field max 7.2370098e-005
statistic Basic.rack[2].node[8].app 	hops
field count 19819
field mean 5.0686210202331
field stddev 1.0416852959275
field sum 100455
field sqrsum 530673
field min 3
field max 7
statistic Basic.rack[2].node[9].app 	throughput
field count 19838
field mean 9919.5
field stddev 5726.8816558403
field sum 196783041
field sqrsum 2602586905919
field min 1
field max 19838
statistic Basic.rack[2].node[9].app 	"End-to-End Delay"
field count 19838
field mean 1.6858122184242e-005
field stddev 9.4336205063201e-006
field sum 0.33443142789099
field sqrsum 7.4032438998574e-006
field min 8.496e-007
field max 8.1979691e-005
statistic Basic.rack[2].node[9].app 	hops
field count 19838
field mean 5.086853513459
field stddev 1.0431375159656
field sum 100913
field sqrsum 534915
field min 3
field max 7
statistic Basic.rack[2].eps.queue[0] 	dropsum
field count 0
field mean nan
field stddev nan
field sum 0
field sqrsum 0
field min nan
field max nan
statistic Basic.rack[2].eps.queue[1] 	dropsum
field count 0
field mean nan
field stddev nan
field sum 0
field sqrsum 0
field min nan
field max nan
statistic Basic.rack[2].eps.queue[2] 	dropsum
field count 0
field mean nan
field stddev nan
field sum 0
field sqrsum 0
field min nan
field max nan
statistic Basic.rack[2].eps.queue[3] 	dropsum
field count 0
field mean nan
field stddev nan
field sum 0
field sqrsum 0
field min nan
field max nan
statistic Basic.rack[3].node[0].app 	throughput
field count 20056
field mean 10028.5
field stddev 5789.8128352017
field sum 201131596
field sqrsum 2689330570116
field min 1
field max 20056
statistic Basic.rack[3].node[0].app 	"End-to-End Delay"
field count 20056
field mean 1.6873968528669e-005
field stddev 9.4854729871936e-006
field sum 0.33842431281099
field sqrsum 7.5149937404034e-006
field min 8.496e-007
field max 7.1166755e-005
statistic Basic.rack[3].node[0].app 	hops
field count 20056
field mean 5.08755484643
field stddev 1.0387710574911
field sum 102036
field sqrsum 540754
field min 3
field max 7
statistic Basic.rack[3].node[1].app 	throughput
field count 20181
field mean 10091
field stddev 5825.8972270372
field sum 203646471
field sqrsum 2739927502991
field min 1
field max 20181
statistic Basic.rack[3].node[1].app 	"End-to-End Delay"
field count 20181
field mean 1.6866158391061e-005
field stddev 9.4719720834528e-006
field sum 0.34037594248999
field sqrsum 7.5513489474639e-006
field min 8.496e-007
field max 8.5463577e-005
statistic Basic.rack[3].node[1].app 	hops
field count 20181
field mean 5.0910262127744
field stddev 1.0474799824029
field sum 102742
field sqrsum 545204
field min 3
field max 7
statistic Basic.rack[3].node[2].app 	throughput
field count 19875
field mean 9938
field stddev 5737.5626358237
field sum 197517750
field sqrsum 2617176026750
field min 1
field max 19875
statistic Basic.rack[3].node[2].app 	"End-to-End Delay"
field count 19875
field mean 1.6847515610566e-005
field stddev 9.541669545822e-006
field sum 0.33484437275999
field sqrsum 7.4506934759445e-006
field min 8.496e-007
field max 7.7054436e-005
statistic Basic.rack[3].node[2].app 	hops
field count 19875
field mean 5.0806037735849
field stddev 1.03342724004
field sum 100977
field sqrsum 534249
field min 3
field max 7
statistic Basic.rack[3].node[3].app 	throughput
field count 20431
field mean 10216
field stddev 5898.0660107078
field sum 208723096
field sqrsum 2843017290616
field min 1
field max 20431
statistic Basic.rack[3].node[3].app 	"End-to-End Delay"
field count 20431
field mean 1.6837426306984e-005
field stddev 9.4615807758404e-006
field sum 0.34400545687799
field sqrsum 7.621090994573e-006
field min 8.496e-007
field max 8.36283e-005
statistic Basic.rack[3].node[3].app 	hops
field count 20431
field mean 5.0806127942832
field stddev 1.040732608596
field sum 103802
field sqrsum 549506
field min 3
field max 7
statistic Basic.rack[3].node[4].app 	throughput
field count 20074
field mean 10037.5
field stddev 5795.008987626
field sum 201492775
field sqrsum 2696577807825
field min 1
field max 20074
statistic Basic.rack[3].node[4].app 	"End-to-End Delay"
field count 20074
field mean 1.679786134029e-005
field stddev 9.4474460253898e-006
field sum 0.33720026854499
field sqrsum 7.455843642238e-006
field min 8.496e-007
field max 6.6111564e-005
statistic Basic.rack[3].node[4].app 	hops
field count 20074
field mean 5.083242004583
field stddev 1.0296724275916
field sum 102041
field sqrsum 539981
field min 3
field max 7
statistic Basic.rack[3].node[5].app 	throughput
field count 19965
field mean 9983
field stddev 5763.5433979454
field sum 199310595
field sqrsum 2652890456315
field min 1
field max 19965
statistic Basic.rack[3].node[5].app 	"End-to-End Delay"
field count 19965
field mean 1.6912109002254e-005
field stddev 9.488789515478e-006
field sum 0.33765025622999
field sqrsum 7.5078791308284e-006
field min 8.496e-007
field max 8.1190629e-005
statistic Basic.rack[3].node[5].app 	hops
field count 19965
field mean 5.0864012021037
field stddev 1.0337414642285
field sum 101550
field sqrsum 537858
field min 3
field max 7
statistic Basic.rack[3].node[6].app 	throughput
field count 20031
field mean 10016
field stddev 5782.5959568346
field sum 200630496
field sqrsum 2679286520416
field min 1
field max 20031
statistic Basic.rack[3].node[6].app 	"End-to-End Delay"
field count 20031
field mean 1.687352306425e-005
field stddev 9.4100622635013e-006
field sum 0.33799354049999
field sqrsum 7.4767837154077e-006
field min 8.496e-007
field max 6.8816096e-005
statistic Basic.rack[3].node[6].app 	hops
field count 20031
field mean 5.0824721681394
field stddev 1.0374359685438
field sum 101807
field sqrsum 538989
field min 3
field max 7
statistic Basic.rack[3].node[7].app 	throughput
field count 20022
field mean 10011.5
field stddev 5779.9978806224
field sum 200450253
field sqrsum 2675676793795
field min 1
field max 20022
statistic Basic.rack[3].node[7].app 	"End-to-End Delay"
field count 20022
field mean 1.6814161234691e-005
field stddev 9.3951491526729e-006
field sum 0.33665313624099
field sqrsum 7.4277703103196e-006
field min 8.496e-007
field max 6.4266267e-005
statistic Basic.rack[3].node[7].app 	hops
field count 20022
field mean 5.0779642393367
field stddev 1.0399179728517
field sum 101671
field sqrsum 537933
field min 3
field max 7
statistic Basic.rack[3].node[8].app 	throughput
field count 20127
field mean 10064
field stddev 5810.3087697643
field sum 202558128
field sqrsum 2717992480880
field min 1
field max 20127
statistic Basic.rack[3].node[8].app 	"End-to-End Delay"
field count 20127
field mean 1.6794346129974e-005
field stddev 9.4389624462541e-006
field sum 0.33801980455799
field sqrsum 7.4699276832889e-006
field min 8.496e-007
field max 8.8241785e-005
statistic Basic.rack[3].node[8].app 	hops
field count 20127
field mean 5.0871963034729
field stddev 1.0424263105414
field sum 102390
field sqrsum 542748
field min 3
field max 7
statistic Basic.rack[3].node[9].app 	throughput
field count 20068
field mean 10034.5
field stddev 5793.2769368179
field sum 201372346
field sqrsum 2694160617134
field min 1
field max 20068
statistic Basic.rack[3].node[9].app 	"End-to-End Delay"
field count 20068
field mean 1.6866355953508e-005
field stddev 9.5326806928353e-006
field sum 0.33847403127499
field sqrsum 7.5323519404137e-006
field min 8.496e-007
field max 7.9134888e-005
statistic Basic.rack[3].node[9].app 	hops
field count 20068
field mean 5.0882997807455
field stddev 1.0316062867188
field sum 102112
field sqrsum 540932
field min 3
field max 7
statistic Basic.rack[3].eps.queue[0] 	dropsum
field count 0
field mean nan
field stddev nan
field sum 0
field sqrsum 0
field min nan
field max nan
statistic Basic.rack[3].eps.queue[1] 	dropsum
field count 0
field mean nan
field stddev nan
field sum 0
field sqrsum 0
field min nan
field max nan
statistic Basic.rack[3].eps.queue[2] 	dropsum
field count 0
field mean nan
field stddev nan
field sum 0
field sqrsum 0
field min nan
field max nan
statistic Basic.rack[3].eps.queue[3] 	dropsum
field count 0
field mean nan
field stddev nan
field sum 0
field sqrsum 0
field min nan
field max nan
statistic Basic.rack[4].node[0].app 	throughput
field count 19976
field mean 9988.5
field stddev 5766.7188244269
field sum 199530276
field sqrsum 2657277705676
field min 1
field max 19976
statistic Basic.rack[4].node[0].app 	"End-to-End Delay"
field count 19976
field mean 2.2343316172408e-005
field stddev 1.1814415092355e-005
field sum 0.44633008386003
field sqrsum 1.2760612750332e-005
field min 8.496e-007
field max 8.3992029e-005
statistic Basic.rack[4].node[0].app 	hops
field count 19976
field mean 5.7559070885062
field stddev 1.1668298989974
field sum 114980
field sqrsum 689010
field min 4
field max 8
statistic Basic.rack[4].node[1].app 	throughput
field count 20061
field mean 10031
field stddev 5791.2562108751
field sum 201231891
field sqrsum 2691342387531
field min 1
field max 20061
statistic Basic.rack[4].node[1].app 	"End-to-End Delay"
field count 20061
field mean 2.2126186187729e-005
field stddev 1.1866896792594e-005
field sum 0.44387342111203
field sqrsum 1.2646140143399e-005
field min 8.496e-007
field max 8.809592e-005
statistic Basic.rack[4].node[1].app 	hops
field count 20061
field mean 5.7511091171926
field stddev 1.1591305535558
field sum 115373
field sqrsum 690475
field min 4
field max 8
statistic Basic.rack[4].node[2].app 	throughput
field count 20066
field mean 10033.5
field stddev 5792.6995865486
field sum 201332211
field sqrsum 2693355208021
field min 1
field max 20066
statistic Basic.rack[4].node[2].app 	"End-to-End Delay"
field count 20066
field mean 2.2346027833899e-005
field stddev 1.1893579428268e-005
field sum 0.44839539451503
field sqrsum 1.2858195318811e-005
field min 8.496e-007
field max 7.6361836e-005
statistic Basic.rack[4].node[2].app 	hops
field count 20066
field mean 5.745290541214
field stddev 1.1599079669134
field sum 115285
field sqrsum 689341
field min 4
field max 8
statistic Basic.rack[4].node[3].app 	throughput
field count 19966
field mean 9983.5
field stddev 5763.8320730801
field sum 199330561
field sqrsum 2653289097471
field min 1
field max 19966
statistic Basic.rack[4].node[3].app 	"End-to-End Delay"
field count 19966
field mean 2.2248508915508e-005
field stddev 1.1702150509211e-005
field sum 0.44421372900703
field sqrsum 1.2617106729579e-005
field min 8.496e-007
field max 7.6939637e-005
statistic Basic.rack[4].node[3].app 	hops
field count 19966
field mean 5.7454672944005
field stddev 1.1521050712386
field sum 114714
field sqrsum 685586
field min 4
field max 8
statistic Basic.rack[4].node[4].app 	throughput
field count 20018
field mean 10009.5
field stddev 5778.8431800837
field sum 200370171
field sqrsum 2674073512109
field min 1
field max 20018
statistic Basic.rack[4].node[4].app 	"End-to-End Delay"
field count 20018
field mean 2.2313336191629e-005
field stddev 1.1893627914179e-005
field sum 0.44666836388403
field sqrsum 1.2798233861272e-005
field min 8.496e-007
field max 8.6772871e-005
statistic Basic.rack[4].node[4].app 	hops
field count 20018
field mean 5.7491257867919
field stddev 1.1737693175468
field sum 115086
field sqrsum 689222
field min 4
field max 8
statistic Basic.rack[4].node[5].app 	throughput
field count 19904
field mean 9952.5
field stddev 5745.9342147296
field sum 198094560
field sqrsum 2628648779680
field min 1
field max 19904
statistic Basic.rack[4].node[5].app 	"End-to-End Delay"
field count 19904
field mean 2.2438967407658e-005
field stddev 1.1825162185238e-005
field sum 0.44662520728203
field sqrsum 1.2804933741095e-005
field min 8.496e-007
field max 8.3304502e-005
statistic Basic.rack[4].node[5].app 	hops
field count 19904
field mean 5.7536676045016
field stddev 1.1641453949449
field sum 114521
field sqrsum 685889
field min 4
field max 8
statistic Basic.rack[4].node[6].app 	throughput
field count 19883
field mean 9942
field stddev 5739.8720369012
field sum 197676786
field sqrsum 2620337582954
field min 1
field max 19883
statistic Basic.rack[4].node[6].app 	"End-to-End Delay"
field count 19883
field mean 2.2292032824977e-005
field stddev 1.178549637629e-005
field sum 0.44323248865903
field sqrsum 1.2642121727864e-005
field min 8.496e-007
field max 7.7705871e-005
statistic Basic.rack[4].node[6].app 	hops
field count 19883
field mean 5.7484283055877
field stddev 1.1673999196525
field sum 114296
field sqrsum 684118
field min 4
field max 8
statistic Basic.rack[4].node[7].app 	throughput
field count 19907
field mean 9954
field stddev 5746.8002401336
field sum 198154278
field sqrsum 2629837526190
field min 1
field max 19907
statistic Basic.rack[4].node[7].app 	"End-to-End Delay"
field count 19907
field mean 2.2275075145277e-005
field stddev 1.1757782781104e-005
field sum 0.44342992091703
field sqrsum 1.2629348855786e-005
field min 8.496e-007
field max 7.70681e-005
statistic Basic.rack[4].node[7].app 	hops
field count 19907
field mean 5.7549103330487
field stddev 1.1594735688425
field sum 114563
field sqrsum 686061
field min 4
field max 8
statistic Basic.rack[4].node[8].app 	throughput
field count 20208
field mean 10104.5
field stddev 5833.6914556737
field sum 204191736
field sqrsum 2750939131304
field min 1
field max 20208
statistic Basic.rack[4].node[8].app 	"End-to-End Delay"
field count 20208
field mean 2.2487950000694e-005
field stddev 1.1823122285458e-005
field sum 0.45443649361403
field sqrsum 1.304400530608e-005
field min 8.496e-007
field max 8.1326381e-005
statistic Basic.rack[4].node[8].app 	hops
field count 20208
field mean 5.7601444972288
field stddev 1.1639157509009
field sum 116401
field sqrsum 697861
field min 4
field max 8
statistic Basic.rack[4].node[9].app 	throughput
field count 19992
field mean 9996.5
field stddev 5771.3376265819
field sum 199850028
field sqrsum 2663667789860
field min 1
field max 19992
statistic Basic.rack[4].node[9].app 	"End-to-End Delay"
field count 19992
field mean 2.2420413976042e-005
field stddev 1.1815654387956e-005
field sum 0.44822891620903
field sqrsum 1.2840415142554e-005
field min 8.496e-007
field max 7.3554261e-005
statistic Basic.rack[4].node[9].app 	hops
field count 19992
field mean 5.7525510204082
field stddev 1.1652701529844
field sum 115005
field sqrsum 688717
field min 4
field max 8
statistic Basic.rack[4].eps.queue[0] 	dropsum
field count 0
field mean nan
field stddev nan
field sum 0
field sqrsum 0
field min nan
field max nan
statistic Basic.rack[4].eps.queue[1] 	dropsum
field count 0
field mean nan
field stddev nan
field sum 0
field sqrsum 0
field min nan
field max nan
statistic Basic.rack[4].eps.queue[2] 	dropsum
field count 0
field mean nan
field stddev nan
field sum 0
field sqrsum 0
field min nan
field max nan
statistic Basic.rack[4].eps.queue[3] 	dropsum
field count 0
field mean nan
field stddev nan
field sum 0
field sqrsum 0
field min nan
field max nan
statistic Basic.rack[5].node[0].app 	throughput
field count 19982
field mean 9991.5
field stddev 5768.450875235
field sum 199650153
field sqrsum 2659672788215
field min 1
field max 19982
statistic Basic.rack[5].node[0].app 	"End-to-End Delay"
field count 19982
field mean 2.9437322005456e-005
field stddev 1.151474520016e-005
field sum 0.58821656831302
field sqrsum 1.9964788473083e-005
field min 9.4416e-006
field max 9.3098566e-005
statistic Basic.rack[5].node[0].app 	hops
field count 19982
field mean 6.3535682113903
field stddev 1.4263536692829
field sum 126957
field sqrsum 847281
field min 4
field max 9
statistic Basic.rack[5].node[1].app 	throughput
field count 20252
field mean 10126.5
field stddev 5846.3931615997
field sum 205081878
field sqrsum 2768947156130
field min 1
field max 20252
statistic Basic.rack[5].node[1].app 	"End-to-End Delay"
field count 20252
field mean 2.9307956982028e-005
field stddev 1.154688793078e-005
field sum 0.59354474480002
field sqrsum 2.009566225107e-005
field min 9.4416e-006
field max 0.000110705781
statistic Basic.rack[5].node[1].app 	hops
field count 20252
field mean 6.3437685166897
field stddev 1.4362609333641
field sum 128474
field sqrsum 856784
field min 4
field max 9
statistic Basic.rack[5].node[2].app 	throughput
field count 20006
field mean 10003.5
field stddev 5775.3790784675
field sum 200130021
field sqrsum 2669267510091
field min 1
field max 20006
statistic Basic.rack[5].node[2].app 	"End-to-End Delay"
field count 20006
field mean 2.9354028764622e-005
field stddev 1.1567696918452e-005
field sum 0.58725669946502
field sqrsum 1.9915251346316e-005
field min 9.4416e-006
field max 9.0748604e-005
statistic Basic.rack[5].node[2].app 	hops
field count 20006
field mean 6.3373487953614
field stddev 1.453782404002
field sum 126785
field sqrsum 845761
field min 4
field max 9
statistic Basic.rack[5].node[3].app 	throughput
field count 19948
field mean 9974.5
field stddev 5758.6359206557
field sum 198971326
field sqrsum 2646119664474
field min 1
field max 19948
statistic Basic.rack[5].node[3].app 	"End-to-End Delay"
field count 19948
field mean 2.9298123056498e-005
field stddev 1.1536311884798e-005
field sum 0.58443895873102
field sqrsum 1.9777640785909e-005
field min 9.4416e-006
field max 8.8091777e-005
statistic Basic.rack[5].node[3].app 	hops
field count 19948
field mean 6.3226889913776
field stddev 1.4365449002516
field sum 126125
field sqrsum 838613
field min 4
field max 9
statistic Basic.rack[5].node[4].app 	throughput
field count 19731
field mean 9866
field stddev 5695.9934164288
field sum 194666046
field sqrsum 2560702057766
field min 1
field max 19731
statistic Basic.rack[5].node[4].app 	"End-to-End Delay"
field count 19731
field mean 2.9331886222392e-005
field stddev 1.1556730059713e-005
field sum 0.57874744705402
field sqrsum 1.9610853799338e-005
field min 9.4416e-006
field max 0.000111418249
statistic Basic.rack[5].node[4].app 	hops
field count 19731
field mean 6.3443312553849
field stddev 1.4396565284696
field sum 125180
field sqrsum 835076
field min 4
field max 9
statistic Basic.rack[5].node[5].app 	throughput
field count 20023
field mean 10012
field stddev 5780.2865557571
field sum 200470276
field sqrsum 2676077714324
field min 1
field max 20023
statistic Basic.rack[5].node[5].app 	"End-to-End Delay"
field count 20023
field mean 2.9321580013236e-005
field stddev 1.15339595939e-005
field sum 0.58710599660503
field sqrsum 1.9878446642906e-005
field min 9.4416e-006
field max 9.4158768e-005
statistic Basic.rack[5].node[5].app 	hops
field count 20023
field mean 6.3436048544174
field stddev 1.4289694821519
field sum 127018
field sqrsum 846636
field min 4
field max 9
statistic Basic.rack[5].node[6].app 	throughput
field count 19953
field mean 9977
field stddev 5760.0792963292
field sum 199071081
field sqrsum 2648109876489
field min 1
field max 19953
statistic Basic.rack[5].node[6].app 	"End-to-End Delay"
field count 19953
field mean 2.9322021708266e-005
field stddev 1.1466583813695e-005
field sum 0.58506229914502
field sqrsum 1.9778549161219e-005
field min 9.4416e-006
field max 9.4360747e-005
statistic Basic.rack[5].node[6].app 	hops
field count 19953
field mean 6.3419535909387
field stddev 1.4326963452224
field sum 126541
field sqrsum 843471
field min 4
field max 9
statistic Basic.rack[5].node[7].app 	throughput
field count 19972
field mean 9986.5
field stddev 5765.5641238882
field sum 199450378
field sqrsum 2655681783070
field min 1
field max 19972
statistic Basic.rack[5].node[7].app 	"End-to-End Delay"
field count 19972
field mean 2.922189697056e-005
field stddev 1.1472041270653e-005
field sum 0.58361972629602
field sqrsum 1.9682813505923e-005
field min 9.4416e-006
field max 8.4455259e-005
statistic Basic.rack[5].node[7].app 	hops
field count 19972
field mean 6.3257560584819
field stddev 1.4286676087612
field sum 126338
field sqrsum 839946
field min 4
field max 9
statistic Basic.rack[5].node[8].app 	throughput
field count 19779
field mean 9890
field stddev 5709.8498228938
field sum 195614310
field sqrsum 2579435496430
field min 1
field max 19779
statistic Basic.rack[5].node[8].app 	"End-to-End Delay"
field count 19779
field mean 2.9338465474545e-005
field stddev 1.1598788962479e-005
field sum 0.58028550862103
field sqrsum 1.9685458384981e-005
field min 9.4416e-006
field max 0.000111293274
statistic Basic.rack[5].node[8].app 	hops
field count 19779
field mean 6.3365690884271
field stddev 1.4360761371786
field sum 125331
field sqrsum 834957
field min 4
field max 9
statistic Basic.rack[5].node[9].app 	throughput
field count 19741
field mean 9871
field stddev 5698.8801677757
field sum 194863411
field sqrsum 2564597352171
field min 1
field max 19741
statistic Basic.rack[5].node[9].app 	"End-to-End Delay"
field count 19741
field mean 2.9235531705031e-005
field stddev 1.1549334289432e-005
field sum 0.57713863138902
field sqrsum 1.9506016554896e-005
field min 9.4416e-006
field max 9.474753e-005
statistic Basic.rack[5].node[9].app 	hops
field count 19741
field mean 6.3273896965706
field stddev 1.4318542896331
field sum 124909
field sqrsum 830819
field min 4
field max 9
statistic Basic.rack[5].eps.queue[0] 	dropsum
field count 0
field mean nan
field stddev nan
field sum 0
field sqrsum 0
field min nan
field max nan
statistic Basic.rack[5].eps.queue[1] 	dropsum
field count 0
field mean nan
field stddev nan
field sum 0
field sqrsum 0
field min nan
field max nan
statistic Basic.rack[5].eps.queue[2] 	dropsum
field count 0
field mean nan
field stddev nan
field sum 0
field sqrsum 0
field min nan
field max nan
statistic Basic.rack[5].eps.queue[3] 	dropsum
field count 0
field mean nan
field stddev nan
field sum 0
field sqrsum 0
field min nan
field max nan
statistic Basic.rack[6].node[0].app 	throughput
field count 19878
field mean 9939.5
field stddev 5738.4286612277
field sum 197577381
field sqrsum 2618361312139
field min 1
field max 19878
statistic Basic.rack[6].node[0].app 	"End-to-End Delay"
field count 19878
field mean 2.1756044009156e-005
field stddev 1.0161365474135e-005
field sum 0.43246664281399
field sqrsum 1.1461130117691e-005
field min 8.992e-006
field max 9.1804949e-005
statistic Basic.rack[6].node[0].app 	hops
field count 19878
field mean 5.9087936412114
field stddev 1.4940246375896
field sum 117455
field sqrsum 738385
field min 3
field max 8
statistic Basic.rack[6].node[1].app 	throughput
field count 19909
field mean 9955
field stddev 5747.377590403
field sum 198194095
field sqrsum 2630630222935
field min 1
field max 19909
statistic Basic.rack[6].node[1].app 	"End-to-End Delay"
field count 19909
field mean 2.1700975629815e-005
field stddev 1.0187562520804e-005
field sum 0.43204472381399
field sqrsum 1.1441972273213e-005
field min 8.992e-006
field max 8.665876e-005
statistic Basic.rack[6].node[1].app 	hops
field count 19909
field mean 5.9153146818022
field stddev 1.5010414399799
field sum 117768
field sqrsum 741490
field min 3
field max 8
statistic Basic.rack[6].node[2].app 	throughput
field count 19972
field mean 9986.5
field stddev 5765.5641238882
field sum 199450378
field sqrsum 2655681783070
field min 1
field max 19972
statistic Basic.rack[6].node[2].app 	"End-to-End Delay"
field count 19972
field mean 2.1753633960945e-005
field stddev 1.0236703505319e-005
field sum 0.43446357746799
field sqrsum 1.1543924693857e-005
field min 8.992e-006
field max 8.3671312e-005
statistic Basic.rack[6].node[2].app 	hops
field count 19972
field mean 5.9170839174845
field stddev 1.4876974664924
field sum 118176
field sqrsum 743458
field min 3
field max 8
statistic Basic.rack[6].node[3].app 	throughput
field count 19869
field mean 9935
field stddev 5735.8305850156
field sum 197398515
field sqrsum 2614806529195
field min 1
field max 19869
statistic Basic.rack[6].node[3].app 	"End-to-End Delay"
field count 19869
field mean 2.1807669617595e-005
field stddev 1.0225556728246e-005
field sum 0.43329658763199
field sqrsum 1.1526626852188e-005
field min 8.992e-006
field max 8.1507492e-005
statistic Basic.rack[6].node[3].app 	hops
field count 19869
field mean 5.9263173788313
field stddev 1.491944152665
field sum 117750
field sqrsum 742048
field min 3
field max 8
statistic Basic.rack[6].node[4].app 	throughput
field count 20143
field mean 10072
field stddev 5814.9275719192
field sum 202880296
field sqrsum 2724479494984
field min 1
field max 20143
statistic Basic.rack[6].node[4].app 	"End-to-End Delay"
field count 20143
field mean 2.1747363215807e-005
field stddev 1.0183909156887e-005
field sum 0.43805713725599
field sqrsum 1.1615554892309e-005
field min 8.992e-006
field max 8.8744672e-005
statistic Basic.rack[6].node[4].app 	hops
field count 20143
field mean 5.9166459812342
field stddev 1.4981710062408
field sum 119179
field sqrsum 750349
field min 3
field max 8
statistic Basic.rack[6].node[5].app 	throughput
field count 19981
field mean 9991
field stddev 5768.1622001004
field sum 199630171
field sqrsum 2659273507891
field min 1
field max 19981
statistic Basic.rack[6].node[5].app 	"End-to-End Delay"
field count 19981
field mean 2.1666871125519e-005
field stddev 1.0156152347607e-005
field sum 0.43292575195899
field sqrsum 1.144103213616e-005
field min 8.992e-006
field max 9.512763e-005
statistic Basic.rack[6].node[5].app 	hops
field count 19981
field mean 5.898353435764
field stddev 1.4986573207932
field sum 117855
field sqrsum 740025
field min 3
field max 8
statistic Basic.rack[6].node[6].app 	throughput
field count 19783
field mean 9892
field stddev 5711.0045234325
field sum 195693436
field sqrsum 2581000727404
field min 1
field max 19783
statistic Basic.rack[6].node[6].app 	"End-to-End Delay"
field count 19783
field mean 2.175696215488e-005
field stddev 1.0151451253319e-005
field sum 0.43041798230999
field sqrsum 1.1403161675033e-005
field min 8.992e-006
field max 8.4432397e-005
statistic Basic.rack[6].node[6].app 	hops
field count 19783
field mean 5.9173027346712
field stddev 1.5147758626808
field sum 117062
field sqrsum 738082
field min 3
field max 8
statistic Basic.rack[6].node[7].app 	throughput
field count 20025
field mean 10013
field stddev 5780.8639060265
field sum 200510325
field sqrsum 2676879675525
field min 1
field max 20025
statistic Basic.rack[6].node[7].app 	"End-to-End Delay"
field count 20025
field mean 2.1837404253083e-005
field stddev 1.0200467108915e-005
field sum 0.43729402016799
field sqrsum 1.1632854069367e-005
field min 8.992e-006
field max 8.6725227e-005
statistic Basic.rack[6].node[7].app 	hops
field count 20025
field mean 5.9228963795256
field stddev 1.4853283005137
field sum 118606
field sqrsum 746668
field min 3
field max 8
statistic Basic.rack[6].node[8].app 	throughput
field count 20115
field mean 10058
field stddev 5806.8446681481
field sum 202316670
field sqrsum 2713133983590
field min 1
field max 20115
statistic Basic.rack[6].node[8].app 	"End-to-End Delay"
field count 20115
field mean 2.1822620178324e-005
field stddev 1.0154620084303e-005
field sum 0.43896200488699
field sqrsum 1.1653382545727e-005
field min 8.992e-006
field max 7.8349218e-005
statistic Basic.rack[6].node[8].app 	hops
field count 20115
field mean 5.9282127765349
field stddev 1.4942856127124
field sum 119246
field sqrsum 751828
field min 3
field max 8
statistic Basic.rack[6].node[9].app 	throughput
field count 20024
field mean 10012.5
field stddev 5780.5752308918
field sum 200490300
field sqrsum 2676478674900
field min 1
field max 20024
statistic Basic.rack[6].node[9].app 	"End-to-End Delay"
field count 20024
field mean 2.1758894711696e-005
field stddev 1.0191260543729e-005
field sum 0.43570010770699
field sqrsum 1.1559977420078e-005
field min 8.992e-006
field max 8.457257e-005
statistic Basic.rack[6].node[9].app 	hops
field count 20024
field mean 5.9187475029964
field stddev 1.5010492956704
field sum 118517
field sqrsum 746587
field min 3
field max 8
statistic Basic.rack[6].eps.queue[0] 	dropsum
field count 0
field mean nan
field stddev nan
field sum 0
field sqrsum 0
field min nan
field max nan
statistic Basic.rack[6].eps.queue[1] 	dropsum
field count 0
field mean nan
field stddev nan
field sum 0
field sqrsum 0
field min nan
field max nan
statistic Basic.rack[6].eps.queue[2] 	dropsum
field count 0
field mean nan
field stddev nan
field sum 0
field sqrsum 0
field min nan
field max nan
statistic Basic.rack[6].eps.queue[3] 	dropsum
field count 0
field mean nan
field stddev nan
field sum 0
field sqrsum 0
field min nan
field max nan
statistic Basic.rack[7].node[0].app 	throughput
field count 20066
field mean 10033.5
field stddev 5792.6995865486
field sum 201332211
field sqrsum 2693355208021
field min 1
field max 20066
statistic Basic.rack[7].node[0].app 	"End-to-End Delay"
field count 20066
field mean 2.178222260894e-005
field stddev 1.0242426001296e-005
field sum 0.43708207887099
field sqrsum 1.1625583922062e-005
field min 8.992e-006
field max 9.8131227e-005
statistic Basic.rack[7].node[0].app 	hops
field count 20066
field mean 5.9096979966112
field stddev 1.5053418093951
field sum 118584
field sqrsum 746264
field min 3
field max 8
statistic Basic.rack[7].node[1].app 	throughput
field count 20028
field mean 10014.5
field stddev 5781.7299314306
field sum 200570406
field sqrsum 2678082917714
field min 1
field max 20028
statistic Basic.rack[7].node[1].app 	"End-to-End Delay"
field count 20028
field mean 2.1781453228779e-005
field stddev 1.0239173360202e-005
field sum 0.43623894526599
field sqrsum 1.1601562303009e-005
field min 8.992e-006
field max 7.5313177e-005
statistic Basic.rack[7].node[1].app 	hops
field count 20028
field mean 5.9016876373078
field stddev 1.5052947108351
field sum 118199
field sqrsum 742953
field min 3
field max 8
statistic Basic.rack[7].node[2].app 	throughput
field count 19865
field mean 9933
field stddev 5734.6758844768
field sum 197319045
field sqrsum 2613227658965
field min 1
field max 19865
statistic Basic.rack[7].node[2].app 	"End-to-End Delay"
field count 19865
field mean 2.1704406322124e-005
field stddev 1.0121023018787e-005
field sum 0.43115803158899
field sqrsum 1.1392800071046e-005
field min 8.992e-006
field max 8.4553688e-005
statistic Basic.rack[7].node[2].app 	hops
field count 19865
field mean 5.9052101686383
field stddev 1.4961103876934
field sum 117307
field sqrsum 737185
field min 3
field max 8
statistic Basic.rack[7].node[3].app 	throughput
field count 20153
field mean 10077
field stddev 5817.8143232661
field sum 203081781
field sqrsum 2728539115589
field min 1
field max 20153
statistic Basic.rack[7].node[3].app 	"End-to-End Delay"
field count 20153
field mean 2.1873918183893e-005
field stddev 1.0271145815611e-005
field sum 0.44082507315999
field sqrsum 1.1768535769349e-005
field min 8.992e-006
field max 9.7294122e-005
statistic Basic.rack[7].node[3].app 	hops
field count 20153
field mean 5.9302337121024
field stddev 1.4938657918069
field sum 119512
field sqrsum 753706
field min 3
field max 8
statistic Basic.rack[7].node[4].app 	throughput
field count 19779
field mean 9890
field stddev 5709.8498228938
field sum 195614310
field sqrsum 2579435496430
field min 1
field max 19779
statistic Basic.rack[7].node[4].app 	"End-to-End Delay"
field count 19779
field mean 2.1877292357905e-005
field stddev 1.0204518804725e-005
field sum 0.43271096554699
field sqrsum 1.1526071031167e-005
field min 8.992e-006
field max 8.7602512e-005
statistic Basic.rack[7].node[4].app 	hops
field count 19779
field mean 5.9413013802518
field stddev 1.4993316153788
field sum 117513
field sqrsum 742641
field min 3
field max 8
statistic Basic.rack[7].node[5].app 	throughput
field count 19938
field mean 9969.5
field stddev 5755.7491693089
field sum 198771891
field sqrsum 2642142232469
field min 1
field max 19938
statistic Basic.rack[7].node[5].app 	"End-to-End Delay"
field count 19938
field mean 2.1737942354398e-005
field stddev 1.0212884249905e-005
field sum 0.43341109466199
field sqrsum 1.1500954396262e-005
field min 8.992e-006
field max 7.8276218e-005
statistic Basic.rack[7].node[5].app 	hops
field count 19938
field mean 5.9201023171833
field stddev 1.4930868934017
field sum 118035
field sqrsum 743225
field min 3
field max 8
statistic Basic.rack[7].node[6].app 	throughput
field count 19929
field mean 9965
field stddev 5753.1510930967
field sum 198592485
field sqrsum 2638565953205
field min 1
field max 19929
statistic Basic.rack[7].node[6].app 	"End-to-End Delay"
field count 19929
field mean 2.1868165065181e-005
field stddev 1.0233239734745e-005
field sum 0.43581066158399
field sqrsum 1.1617223611986e-005
field min 8.992e-006
field max 8.3164058e-005
statistic Basic.rack[7].node[6].app 	hops
field count 19929
field mean 5.9119373776908
field stddev 1.501244801599
field sum 117819
field sqrsum 741451
field min 3
field max 8
statistic Basic.rack[7].node[7].app 	throughput
field count 19840
field mean 9920.5
field stddev 5727.4590061097
field sum 196822720
field sqrsum 2603374117440
field min 1
field max 19840
statistic Basic.rack[7].node[7].app 	"End-to-End Delay"
field count 19840
field mean 2.170401214002e-005
field stddev 1.0236470664758e-005
field sum 0.43060760085799
field sqrsum 1.1424748791617e-005
field min 8.992e-006
field max 8.3583972e-005
statistic Basic.rack[7].node[7].app 	hops
field count 19840
field mean 5.9150201612903
field stddev 1.5024003173727
field sum 117354
field sqrsum 738932
field min 3
field max 8
statistic Basic.rack[7].node[8].app 	throughput
field count 19808
field mean 9904.5
field stddev 5718.2214017997
field sum 196188336
field sqrsum 2590797769104
field min 1
field max 19808
statistic Basic.rack[7].node[8].app 	"End-to-End Delay"
field count 19808
field mean 2.1772550629594e-005
field stddev 1.0183924720348e-005
field sum 0.431270682871
field sqrsum 1.144409275378e-005
field min 8.992e-006
field max 8.2470362e-005
statistic Basic.rack[7].node[8].app 	hops
field count 19808
field mean 5.9174575928918
field stddev 1.4959942670657
field sum 117213
field sqrsum 737931
field min 3
field max 8
statistic Basic.rack[7].node[9].app 	throughput
field count 19941
field mean 9971
field stddev 5756.6151947129
field sum 198831711
field sqrsum 2643335043271
field min 1
field max 19941
statistic Basic.rack[7].node[9].app 	"End-to-End Delay"
field count 19941
field mean 2.1824237060277e-005
field stddev 1.0157559707035e-005
field sum 0.43519711121899
field sqrsum 1.1555174746079e-005
field min 8.992e-006
field max 9.675445e-005
statistic Basic.rack[7].node[9].app 	hops
field count 19941
field mean 5.9262323855373
field stddev 1.4891194788947
field sum 118175
field sqrsum 744549
field min 3
field max 8
statistic Basic.rack[7].eps.queue[0] 	dropsum
field count 0
field mean nan
field stddev nan
field sum 0
field sqrsum 0
field min nan
field max nan
statistic Basic.rack[7].eps.queue[1] 	dropsum
field count 0
field mean nan
field stddev nan
field sum 0
field sqrsum 0
field min nan
field max nan
statistic Basic.rack[7].eps.queue[2] 	dropsum
field count 0
field mean nan
field stddev nan
field sum 0
field sqrsum 0
field min nan
field max nan
statistic Basic.rack[7].eps.queue[3] 	dropsum
field count 0
field mean nan
field stddev nan
field sum 0
field sqrsum 0
field min nan
field max nan
statistic Basic.rack[8].node[0].app 	throughput
field count 20000
field mean 10000.5
field stddev 5773.6470276594
field sum 200010000
field sqrsum 2666866670000
field min 1
field max 20000
statistic Basic.rack[8].node[0].app 	"End-to-End Delay"
field count 20000
field mean 2.9387702769501e-005
field stddev 1.1527789665577e-005
field sum 0.58775405539002
field sqrsum 1.9930407282912e-005
field min 9.4416e-006
field max 0.000104879399
statistic Basic.rack[8].node[0].app 	hops
field count 20000
field mean 6.3474
field stddev 1.4324160815879
field sum 126948
field sqrsum 846824
field min 4
field max 9
statistic Basic.rack[8].node[1].app 	throughput
field count 20140
field mean 10070.5
field stddev 5814.0615465152
field sum 202819870
field sqrsum 2723262394490
field min 1
field max 20140
statistic Basic.rack[8].node[1].app 	"End-to-End Delay"
field count 20140
field mean 2.9206936083715e-005
field stddev 1.1589597047524e-005
field sum 0.58822769272603
field sqrsum 1.9885374126202e-005
field min 9.4416e-006
field max 9.5056764e-005
statistic Basic.rack[8].node[1].app 	hops
field count 20140
field mean 6.3212015888779
field stddev 1.4350071739306
field sum 127309
field sqrsum 846217
field min 4
field max 9
statistic Basic.rack[8].node[2].app 	throughput
field count 19903
field mean 9952
field stddev 5745.6455395949
field sum 198074656
field sqrsum 2628252610464
field min 1
field max 19903
statistic Basic.rack[8].node[2].app 	"End-to-End Delay"
field count 19903
field mean 2.9296381737176e-005
field stddev 1.154024696777e-005
field sum 0.58308588571502
field sqrsum 1.9732801319602e-005
field min 9.4416e-006
field max 9.5371585e-005
statistic Basic.rack[8].node[2].app 	hops
field count 19903
field mean 6.3363814500327
field stddev 1.4363339724715
field sum 126113
field sqrsum 840159
field min 4
field max 9
statistic Basic.rack[8].node[3].app 	throughput
field count 20210
field mean 10105.5
field stddev 5834.268805943
field sum 204232155
field sqrsum 2751755979085
field min 1
field max 20210
statistic Basic.rack[8].node[3].app 	"End-to-End Delay"
field count 20210
field mean 2.9131550118853e-005
field stddev 1.1523377627609e-005
field sum 0.58874862790202
field sqrsum 1.983467754058e-005
field min 9.4416e-006
field max 0.000103276048
statistic Basic.rack[8].node[3].app 	hops
field count 20210
field mean 6.3281048985651
field stddev 1.4336624484558
field sum 127891
field sqrsum 850845
field min 4
field max 9
statistic Basic.rack[8].node[4].app 	throughput
field count 20181
field mean 10091
field stddev 5825.8972270372
field sum 203646471
field sqrsum 2739927502991
field min 1
field max 20181
statistic Basic.rack[8].node[4].app 	"End-to-End Delay"
field count 20181
field mean 2.9436368771816e-005
field stddev 1.1496722314907e-005
field sum 0.59405535818403
field sqrsum 2.0154116506418e-005
field min 9.4416e-006
field max 9.7290162e-005
statistic Basic.rack[8].node[4].app 	hops
field count 20181
field mean 6.3498340022794
field stddev 1.4352936930564
field sum 128146
field sqrsum 855278
field min 4
field max 9
statistic Basic.rack[8].node[5].app 	throughput
field count 19784
field mean 9892.5
field stddev 5711.2931985672
field sum 195713220
field sqrsum 2581392134060
field min 1
field max 19784
statistic Basic.rack[8].node[5].app 	"End-to-End Delay"
field count 19784
field mean 2.9182717655784e-005
field stddev 1.1372442559121e-005
field sum 0.57735088610203
field sqrsum 1.9407251751044e-005
field min 9.4416e-006
field max 8.7078906e-005
statistic Basic.rack[8].node[5].app 	hops
field count 19784
field mean 6.319146785281
field stddev 1.4166938778844
field sum 125018
field sqrsum 829712
field min 4
field max 9
statistic Basic.rack[8].node[6].app 	throughput
field count 20228
field mean 10114.5
field stddev 5839.4649583673
field sum 204596106
field sqrsum 2759114886814
field min 1
field max 20228
statistic Basic.rack[8].node[6].app 	"End-to-End Delay"
field count 20228
field mean 2.9311051442062e-005
field stddev 1.1471939632987e-005
field sum 0.59290394857002
field sqrsum 2.0040620541156e-005
field min 9.4416e-006
field max 9.3042161e-005
statistic Basic.rack[8].node[6].app 	hops
field count 20228
field mean 6.3376013446708
field stddev 1.4286740106983
field sum 128197
field sqrsum 853747
field min 4
field max 9
statistic Basic.rack[8].node[7].app 	throughput
field count 19855
field mean 9928
field stddev 5731.78913313
field sum 197120440
field sqrsum 2609283264280
field min 1
field max 19855
statistic Basic.rack[8].node[7].app 	"End-to-End Delay"
field count 19855
field mean 2.9296546709293e-005
field stddev 1.1522553091762e-005
field sum 0.58168293491302
field sqrsum 1.9677301560184e-005
field min 9.4416e-006
field max 9.8488897e-005
statistic Basic.rack[8].node[7].app 	hops
field count 19855
field mean 6.3303953664064
field stddev 1.4348377129259
field sum 125690
field sqrsum 836542
field min 4
field max 9
statistic Basic.rack[8].node[8].app 	throughput
field count 20009
field mean 10005
field stddev 5776.2451038715
field sum 200190045
field sqrsum 2670468470285
field min 1
field max 20009
statistic Basic.rack[8].node[8].app 	"End-to-End Delay"
field count 20009
field mean 2.9222850927784e-005
field stddev 1.1558371796476e-005
field sum 0.58472002421403
field sqrsum 1.9760174041477e-005
field min 9.4416e-006
field max 9.9952315e-005
statistic Basic.rack[8].node[8].app 	hops
field count 20009
field mean 6.3281023539407
field stddev 1.4301860820981
field sum 126619
field sqrsum 842183
field min 4
field max 9
statistic Basic.rack[8].node[9].app 	throughput
field count 20018
field mean 10009.5
field stddev 5778.8431800837
field sum 200370171
field sqrsum 2674073512109
field min 1
field max 20018
statistic Basic.rack[8].node[9].app 	"End-to-End Delay"
field count 20018
field mean 2.9366512099811e-005
field stddev 1.1430314684245e-005
field sum 0.58785883921402
field sqrsum 1.9878626675971e-005
field min 9.4416e-006
field max 8.764264e-005
statistic Basic.rack[8].node[9].app 	hops
field count 20018
field mean 6.3407932860426
field stddev 1.4383660340158
field sum 126930
field sqrsum 846250
field min 4
field max 9
statistic Basic.rack[8].eps.queue[0] 	dropsum
field count 0
field mean nan
field stddev nan
field sum 0
field sqrsum 0
field min nan
field max nan
statistic Basic.rack[8].eps.queue[1] 	dropsum
field count 0
field mean nan
field stddev nan
field sum 0
field sqrsum 0
field min nan
field max nan
statistic Basic.rack[8].eps.queue[2] 	dropsum
field count 0
field mean nan
field stddev nan
field sum 0
field sqrsum 0
field min nan
field max nan
statistic Basic.rack[8].eps.queue[3] 	dropsum
field count 0
field mean nan
field stddev nan
field sum 0
field sqrsum 0
field min nan
field max nan
statistic Basic.rack[9].node[0].app 	throughput
field count 20084
field mean 10042.5
field stddev 5797.8957389729
field sum 201693570
field sqrsum 2700609671110
field min 1
field max 20084
statistic Basic.rack[9].node[0].app 	"End-to-End Delay"
field count 20084
field mean 2.2342526598687e-005
field stddev 1.1766094583942e-005
field sum 0.44872730420803
field sqrsum 1.2806011966477e-005
field min 8.496e-007
field max 9.7337857e-005
statistic Basic.rack[9].node[0].app 	hops
field count 20084
field mean 5.756721768572
field stddev 1.158532265614
field sum 115618
field sqrsum 692536
field min 4
field max 8
statistic Basic.rack[9].node[1].app 	throughput
field count 20293
field mean 10147
field stddev 5858.2288421217
field sum 205913071
field sqrsum 2785797937559
field min 1
field max 20293
statistic Basic.rack[9].node[1].app 	"End-to-End Delay"
field count 20293
field mean 2.2247681626326e-005
field stddev 1.1836284466557e-005
field sum 0.45147220324303
field sqrsum 1.2887070948304e-005
field min 8.496e-007
field max 7.5843805e-005
statistic Basic.rack[9].node[1].app 	hops
field count 20293
field mean 5.7405509288917
field stddev 1.1605539641383
field sum 116493
field sqrsum 696065
field min 4
field max 8
statistic Basic.rack[9].node[2].app 	throughput
field count 20012
field mean 10006.5
field stddev 5777.1111292756
field sum 200250078
field sqrsum 2671669790650
field min 1
field max 20012
statistic Basic.rack[9].node[2].app 	"End-to-End Delay"
field count 20012
field mean 2.2436829743206e-005
field stddev 1.1861095653847e-005
field sum 0.44900583682103
field sqrsum 1.2889526858144e-005
field min 8.496e-007
field max 8.0559498e-005
statistic Basic.rack[9].node[2].app 	hops
field count 20012
field mean 5.7583449930042
field stddev 1.1684677552317
field sum 115236
field sqrsum 690890
field min 4
field max 8
statistic Basic.rack[9].node[3].app 	throughput
field count 20194
field mean 10097.5
field stddev 5829.6500037881
field sum 203908915
field sqrsum 2745225722645
field min 1
field max 20194
statistic Basic.rack[9].node[3].app 	"End-to-End Delay"
field count 20194
field mean 2.2280684095376e-005
field stddev 1.1877909551796e-005
field sum 0.44993613462203
field sqrsum 1.2873808938938e-005
field min 8.496e-007
field max 8.3331913e-005
statistic Basic.rack[9].node[3].app 	hops
field count 20194
field mean 5.7480934931168
field stddev 1.1656184833572
field sum 116077
field sqrsum 694657
field min 4
field max 8
statistic Basic.rack[9].node[4].app 	throughput
field count 20041
field mean 10021
field stddev 5785.4827081815
field sum 200830861
field sqrsum 2683301133821
field min 1
field max 20041
statistic Basic.rack[9].node[4].app 	"End-to-End Delay"
field count 20041
field mean 2.2298407896264e-005
field stddev 1.1888369351942e-005
field sum 0.44688239264903
field sqrsum 1.2797085722945e-005
field min 8.496e-007
field max 8.3613904e-005
statistic Basic.rack[9].node[4].app 	hops
field count 20041
field mean 5.7459208622324
field stddev 1.1682387973993
field sum 115154
field sqrsum 689016
field min 4
field max 8
statistic Basic.rack[9].node[5].app 	throughput
field count 20066
field mean 10033.5
field stddev 5792.6995865486
field sum 201332211
field sqrsum 2693355208021
field min 1
field max 20066
statistic Basic.rack[9].node[5].app 	"End-to-End Delay"
field count 20066
field mean 2.2324252379798e-005
field stddev 1.1962058592451e-005
field sum 0.44795844825303
field sqrsum 1.2871455274823e-005
field min 8.496e-007
field max 8.9865782e-005
statistic Basic.rack[9].node[5].app 	hops
field count 20066
field mean 5.7533638991329
field stddev 1.1669593249662
field sum 115447
field sqrsum 691533
field min 4
field max 8
statistic Basic.rack[9].node[6].app 	throughput
field count 20039
field mean 10020
field stddev 5784.9053579121
field sum 200790780
field sqrsum 2682497890540
field min 1
field max 20039
statistic Basic.rack[9].node[6].app 	"End-to-End Delay"
field count 20039
field mean 2.2280529057639e-005
field stddev 1.1820171801607e-005
field sum 0.44647952178603
field sqrsum 1.2747438412718e-005
field min 8.496e-007
field max 7.6191458e-005
statistic Basic.rack[9].node[6].app 	hops
field count 20039
field mean 5.7523828534358
field stddev 1.1576786118684
field sum 115272
field sqrsum 689944
field min 4
field max 8
statistic Basic.rack[9].node[7].app 	throughput
field count 19863
field mean 9932
field stddev 5734.0985342074
field sum 197279316
field sqrsum 2612438462244
field min 1
field max 19863
statistic Basic.rack[9].node[7].app 	"End-to-End Delay"
field count 19863
field mean 2.2195769522128e-005
field stddev 1.1860355423642e-005
field sum 0.44087457001803
field sqrsum 1.2579498771543e-005
field min 8.496e-007
field max 9.3371552e-005
statistic Basic.rack[9].node[7].app 	hops
field count 19863
field mean 5.7421336152646
field stddev 1.1607137841177
field sum 114056
field sqrsum 681684
field min 4
field max 8
statistic Basic.rack[9].node[8].app 	throughput
field count 20050
field mean 10025.5
field stddev 5788.0807843936
field sum 201011275
field sqrsum 2686917712925
field min 1
field max 20050
statistic Basic.rack[9].node[8].app 	"End-to-End Delay"
field count 20050
field mean 2.2313724777358e-005
field stddev 1.1952974564094e-005
field sum 0.44739018178603
field sqrsum 1.2847414209509e-005
field min 8.496e-007
field max 0.000100473064
statistic Basic.rack[9].node[8].app 	hops
field count 20050
field mean 5.7489775561097
field stddev 1.1647987591979
field sum 115267
field sqrsum 689869
field min 4
field max 8
statistic Basic.rack[9].node[9].app 	throughput
field count 20147
field mean 10074
field stddev 5816.082272458
field sum 202960878
field sqrsum 2726102859670
field min 1
field max 20147
statistic Basic.rack[9].node[9].app 	"End-to-End Delay"
field count 20147
field mean 2.2366517445378e-005
field stddev 1.1910131977327e-005
field sum 0.45061822697203
field sqrsum 1.2936495590705e-005
field min 8.496e-007
field max 8.1888951e-005
statistic Basic.rack[9].node[9].app 	hops
field count 20147
field mean 5.7494912393905
field stddev 1.1623132187689
field sum 115835
field sqrsum 693209
field min 4
field max 8
statistic Basic.rack[9].eps.queue[0] 	dropsum
field count 0
field mean nan
field stddev nan
field sum 0
field sqrsum 0
field min nan
field max nan
statistic Basic.rack[9].eps.queue[1] 	dropsum
field count 0
field mean nan
field stddev nan
field sum 0
field sqrsum 0
field min nan
field max nan
statistic Basic.rack[9].eps.queue[2] 	dropsum
field count 0
field mean nan
field stddev nan
field sum 0
field sqrsum 0
field min nan
field max nan
statistic Basic.rack[9].eps.queue[3] 	dropsum
field count 0
field mean nan
field stddev nan
field sum 0
field sqrsum 0
field min nan
field max nan
statistic Basic.rack[10].node[0].app 	throughput
field count 20088
field mean 10044.5
field stddev 5799.0504395116
field sum 201773916
field sqrsum 2702223541044
field min 1
field max 20088
statistic Basic.rack[10].node[0].app 	"End-to-End Delay"
field count 20088
field mean 1.6878936722421e-005
field stddev 9.5289379170674e-006
field sum 0.33906408087999
field sqrsum 7.5469539797967e-006
field min 8.496e-007
field max 9.2754625e-005
statistic Basic.rack[10].node[0].app 	hops
field count 20088
field mean 5.084229390681
field stddev 1.038212594844
field sum 102132
field sqrsum 540914
field min 3
field max 7
statistic Basic.rack[10].node[1].app 	throughput
field count 19891
field mean 9946
field stddev 5742.1814379787
field sum 197835886
field sqrsum 2623501684246
field min 1
field max 19891
statistic Basic.rack[10].node[1].app 	"End-to-End Delay"
field count 19891
field mean 1.6859165232567e-005
field stddev 9.5403557907285e-006
field sum 0.33534565564099
field sqrsum 7.4640035680013e-006
field min 8.496e-007
field max 7.6191796e-005
statistic Basic.rack[10].node[1].app 	hops
field count 19891
field mean 5.0925041476044
field stddev 1.0379377871992
field sum 101295
field sqrsum 537273
field min 3
field max 7
statistic Basic.rack[10].node[2].app 	throughput
field count 19949
field mean 9975
field stddev 5758.9245957904
field sum 198991275
field sqrsum 2646517627075
field min 1
field max 19949
statistic Basic.rack[10].node[2].app 	"End-to-End Delay"
field count 19949
field mean 1.6921074456865e-005
field stddev 9.5942478581394e-006
field sum 0.33755851433999
field sqrsum 7.5480580151818e-006
field min 8.496e-007
field max 7.208403e-005
statistic Basic.rack[10].node[2].app 	hops
field count 19949
field mean 5.0782996641436
field stddev 1.0478260536803
field sum 101307
field sqrsum 536369
field min 3
field max 7
statistic Basic.rack[10].node[3].app 	throughput
field count 20160
field mean 10080.5
field stddev 5819.8350492089
field sum 203222880
field sqrsum 2731383248160
field min 1
field max 20160
statistic Basic.rack[10].node[3].app 	"End-to-End Delay"
field count 20160
field mean 1.6764338374057e-005
field stddev 9.4036944358338e-006
field sum 0.33796906162099
field sqrsum 7.4484773754052e-006
field min 8.496e-007
field max 7.1878272e-005
statistic Basic.rack[10].node[3].app 	hops
field count 20160
field mean 5.0747023809524
field stddev 1.0378877986601
field sum 102306
field sqrsum 540888
field min 3
field max 7
statistic Basic.rack[10].node[4].app 	throughput
field count 20091
field mean 10046
field stddev 5799.9164649157
field sum 201834186
field sqrsum 2703434365346
field min 1
field max 20091
statistic Basic.rack[10].node[4].app 	"End-to-End Delay"
field count 20091
field mean 1.6878818393808e-005
field stddev 9.4902714547519e-006
field sum 0.33911234034999
field sqrsum 7.5332265262699e-006
field min 8.496e-007
field max 7.002064e-005
statistic Basic.rack[10].node[4].app 	hops
field count 20091
field mean 5.0851625105769
field stddev 1.0348166708552
field sum 102166
field sqrsum 541044
field min 3
field max 7
statistic Basic.rack[10].node[5].app 	throughput
field count 19969
field mean 9985
field stddev 5764.6980984841
field sum 199390465
field sqrsum 2654485260545
field min 1
field max 19969
statistic Basic.rack[10].node[5].app 	"End-to-End Delay"
field count 19969
field mean 1.6886433681606e-005
field stddev 9.4301897371389e-006
field sum 0.33720519418799
field sqrsum 7.4699170070062e-006
field min 8.496e-007
field max 7.4280659e-005
statistic Basic.rack[10].node[5].app 	hops
field count 19969
field mean 5.096950272923
field stddev 1.0271334960613
field sum 101781
field sqrsum 539839
field min 3
field max 7
statistic Basic.rack[10].node[6].app 	throughput
field count 19807
field mean 9904
field stddev 5717.932726665
field sum 196168528
field sqrsum 2590405412240
field min 1
field max 19807
statistic Basic.rack[10].node[6].app 	"End-to-End Delay"
field count 19807
field mean 1.6835823260564e-005
field stddev 9.5291595350858e-006
field sum 0.33346715132199
field sqrsum 7.4126755047627e-006
field min 8.496e-007
field max 7.6592357e-005
statistic Basic.rack[10].node[6].app 	hops
field count 19807
field mean 5.0915837835109
field stddev 1.0383407049739
field sum 100849
field sqrsum 534835
field min 3
field max 7
statistic Basic.rack[10].node[7].app 	throughput
field count 19977
field mean 9989
field stddev 5767.0074995616
field sum 199550253
field sqrsum 2657676786205
field min 1
field max 19977
statistic Basic.rack[10].node[7].app 	"End-to-End Delay"
field count 19977
field mean 1.6795408118035e-005
field stddev 9.4543205985289e-006
field sum 0.33552186797399
field sqrsum 7.4207650444726e-006
field min 8.496e-007
field max 7.8630358e-005
statistic Basic.rack[10].node[7].app 	hops
field count 19977
field mean 5.0896030435
field stddev 1.0369043989133
field sum 101675
field sqrsum 538963
field min 3
field max 7
statistic Basic.rack[10].node[8].app 	throughput
field count 19955
field mean 9978
field stddev 5760.6566465985
field sum 199110990
field sqrsum 2648906240630
field min 1
field max 19955
statistic Basic.rack[10].node[8].app 	"End-to-End Delay"
field count 19955
field mean 1.6980670610824e-005
field stddev 9.477337738775e-006
field sum 0.33884928203899
field sqrsum 7.5461549405062e-006
field min 8.496e-007
field max 7.7824219e-005
statistic Basic.rack[10].node[8].app 	hops
field count 19955
field mean 5.0948634427462
field stddev 1.0354405296549
field sum 101668
field sqrsum 539378
field min 3
field max 7
statistic Basic.rack[10].node[9].app 	throughput
field count 19954
field mean 9977.5
field stddev 5760.3679714639
field sum 199091035
field sqrsum 2648508038605
field min 1
field max 19954
statistic Basic.rack[10].node[9].app 	"End-to-End Delay"
field count 19954
field mean 1.6764448922822e-005
field stddev 9.4316015834935e-006
field sum 0.33451781380599
field sqrsum 7.3829280818236e-006
field min 8.496e-007
field max 7.2489057e-005
statistic Basic.rack[10].node[9].app 	hops
field count 19954
field mean 5.0827904179613
field stddev 1.0371061401657
field sum 101422
field sqrsum 536968
field min 3
field max 7
statistic Basic.rack[10].eps.queue[0] 	dropsum
field count 0
field mean nan
field stddev nan
field sum 0
field sqrsum 0
field min nan
field max nan
statistic Basic.rack[10].eps.queue[1] 	dropsum
field count 0
field mean nan
field stddev nan
field sum 0
field sqrsum 0
field min nan
field max nan
statistic Basic.rack[10].eps.queue[2] 	dropsum
field count 0
field mean nan
field stddev nan
field sum 0
field sqrsum 0
field min nan
field max nan
statistic Basic.rack[10].eps.queue[3] 	dropsum
field count 0
field mean nan
field stddev nan
field sum 0
field sqrsum 0
field min nan
field max nan
statistic Basic.rack[11].node[0].app 	throughput
field count 19801
field mean 9901
field stddev 5716.2006758569
field sum 196049701
field sqrsum 2588052102901
field min 1
field max 19801
statistic Basic.rack[11].node[0].app 	"End-to-End Delay"
field count 19801
field mean 1.6767288902227e-005
field stddev 9.3702666790488e-006
field sum 0.33200908755299
field sqrsum 7.3053698623682e-006
field min 8.496e-007
field max 6.5028433e-005
statistic Basic.rack[11].node[0].app 	hops
field count 19801
field mean 5.0855007322862
field stddev 1.0491999660212
field sum 100698
field sqrsum 533896
field min 3
field max 7
statistic Basic.rack[11].node[1].app 	throughput
field count 20099
field mean 10050
field stddev 5802.2258659932
field sum 201994950
field sqrsum 2706664998350
field min 1
field max 20099
statistic Basic.rack[11].node[1].app 	"End-to-End Delay"
field count 20099
field mean 1.6908074142345e-005
field stddev 9.4561039863262e-006
field sum 0.33983538218699
field sqrsum 7.5430828446689e-006
field min 8.496e-007
field max 8.6467386e-005
statistic Basic.rack[11].node[1].app 	hops
field count 20099
field mean 5.0816956067466
field stddev 1.0376976391865
field sum 102137
field sqrsum 540671
field min 3
field max 7
statistic Basic.rack[11].node[2].app 	throughput
field count 19775
field mean 9888
field stddev 5708.695122355
field sum 195535200
field sqrsum 2577870898400
field min 1
field max 19775
statistic Basic.rack[11].node[2].app 	"End-to-End Delay"
field count 19775
field mean 1.6940873381542e-005
field stddev 9.5709003470609e-006
field sum 0.33500577111999
field sqrsum 7.4866309375365e-006
field min 8.496e-007
field max 8.8646931e-005
statistic Basic.rack[11].node[2].app 	hops
field count 19775
field mean 5.0947661188369
field stddev 1.0384634837416
field sum 100749
field sqrsum 534617
field min 3
field max 7
statistic Basic.rack[11].node[3].app 	throughput
field count 19886
field mean 9943.5
field stddev 5740.7380623052
field sum 197736441
field sqrsum 2621523822631
field min 1
field max 19886
statistic Basic.rack[11].node[3].app 	"End-to-End Delay"
field count 19886
field mean 1.6819788685054e-005
field stddev 9.5071404411808e-006
field sum 0.33447831779099
field sqrsum 7.4231746546162e-006
field min 8.496e-007
field max 7.7960084e-005
statistic Basic.rack[11].node[3].app 	hops
field count 19886
field mean 5.0856884240169
field stddev 1.0297067779484
field sum 101134
field sqrsum 535420
field min 3
field max 7
statistic Basic.rack[11].node[4].app 	throughput
field count 19864
field mean 9932.5
field stddev 5734.3872093421
field sum 197299180
[...]
field sqrsum 1.9648787328502e-005
field min 9.4416e-006
field max 8.4324801e-005
statistic Basic.rack[13].node[1].app 	hops
field count 20009
field mean 6.3341996101754
field stddev 1.4284936551097
field sum 126741
field sqrsum 843631
field min 4
field max 9
statistic Basic.rack[13].node[2].app 	throughput
field count 19790
field mean 9895.5
field stddev 5713.0252493753
field sum 195831945
field sqrsum 2583741405015
field min 1
field max 19790
statistic Basic.rack[13].node[2].app 	"End-to-End Delay"
field count 19790
field mean 2.929294707317e-005
field stddev 1.1483241637928e-005
field sum 0.57970742257802
field sqrsum 1.9590812136876e-005
field min 9.4416e-006
field max 9.1592851e-005
statistic Basic.rack[13].node[2].app 	hops
field count 19790
field mean 6.3358767054068
field stddev 1.4335981922433
field sum 125387
field sqrsum 835107
field min 4
field max 9
statistic Basic.rack[13].node[3].app 	throughput
field count 19869
field mean 9935
field stddev 5735.8305850156
field sum 197398515
field sqrsum 2614806529195
field min 1
field max 19869
statistic Basic.rack[13].node[3].app 	"End-to-End Delay"
field count 19869
field mean 2.927361565635e-005
field stddev 1.1521322396802e-005
field sum 0.58163746947603
field sqrsum 1.9663927333385e-005
field min 9.4416e-006
field max 8.813124e-005
statistic Basic.rack[13].node[3].app 	hops
field count 19869
field mean 6.3383159696009
field stddev 1.4318952971339
field sum 125936
field sqrsum 838958
field min 4
field max 9
statistic Basic.rack[13].node[4].app 	throughput
field count 19915
field mean 9958
field stddev 5749.1096412111
field sum 198313570
field sqrsum 2633009268890
field min 1
field max 19915
statistic Basic.rack[13].node[4].app 	"End-to-End Delay"
field count 19915
field mean 2.9383230025057e-005
field stddev 1.151392593206e-005
field sum 0.58516702594902
field sqrsum 1.9834106071747e-005
field min 9.4416e-006
field max 9.2176239e-005
statistic Basic.rack[13].node[4].app 	hops
field count 19915
field mean 6.3331157419031
field stddev 1.4314034534508
field sum 126124
field sqrsum 839560
field min 4
field max 9
statistic Basic.rack[13].node[5].app 	throughput
field count 20044
field mean 10022.5
field stddev 5786.3487335855
field sum 200890990
field sqrsum 2684506299370
field min 1
field max 20044
statistic Basic.rack[13].node[5].app 	"End-to-End Delay"
field count 20044
field mean 2.9291662428359e-005
field stddev 1.1513011510308e-005
field sum 0.58712208171402
field sqrsum 1.9854470128196e-005
field min 9.4416e-006
field max 8.972027e-005
statistic Basic.rack[13].node[5].app 	hops
field count 20044
field mean 6.3328676910796
field stddev 1.4334356114955
field sum 126936
field sqrsum 845052
field min 4
field max 9
statistic Basic.rack[13].node[6].app 	throughput
field count 19855
field mean 9928
field stddev 5731.78913313
field sum 197120440
field sqrsum 2609283264280
field min 1
field max 19855
statistic Basic.rack[13].node[6].app 	"End-to-End Delay"
field count 19855
field mean 2.9240176178143e-005
field stddev 1.1551213710494e-005
field sum 0.58056369801703
field sqrsum 1.9624914717787e-005
field min 9.4416e-006
field max 0.000105793052
statistic Basic.rack[13].node[6].app 	hops
field count 19855
field mean 6.3253588516746
field stddev 1.4306820415341
field sum 125590
field sqrsum 835040
field min 4
field max 9
statistic Basic.rack[13].node[7].app 	throughput
field count 19979
field mean 9990
field stddev 5767.584849831
field sum 199590210
field sqrsum 2658475067130
field min 1
field max 19979
statistic Basic.rack[13].node[7].app 	"End-to-End Delay"
field count 19979
field mean 2.9264848959058e-005
field stddev 1.1484686476473e-005
field sum 0.58468241735303
field sqrsum 1.9745701345595e-005
field min 9.4416e-006
field max 8.3964088e-005
statistic Basic.rack[13].node[7].app 	hops
field count 19979
field mean 6.3418088993443
field stddev 1.4318150911412
field sum 126703
field sqrsum 844483
field min 4
field max 9
statistic Basic.rack[13].node[8].app 	throughput
field count 20158
field mean 10079.5
field stddev 5819.2576989395
field sum 203182561
field sqrsum 2730570437279
field min 1
field max 20158
statistic Basic.rack[13].node[8].app 	"End-to-End Delay"
field count 20158
field mean 2.9198899101995e-005
field stddev 1.1545267209986e-005
field sum 0.58859140809802
field sqrsum 1.9873012067962e-005
field min 9.4416e-006
field max 9.4708787e-005
statistic Basic.rack[13].node[8].app 	hops
field count 20158
field mean 6.3479511856335
field stddev 1.4408595768102
field sum 127962
field sqrsum 854144
field min 4
field max 9
statistic Basic.rack[13].node[9].app 	throughput
field count 20156
field mean 10078.5
field stddev 5818.6803486701
field sum 203142246
field sqrsum 2729757787666
field min 1
field max 20156
statistic Basic.rack[13].node[9].app 	"End-to-End Delay"
field count 20156
field mean 2.9183475118378e-005
field stddev 1.1489117612965e-005
field sum 0.58822212448602
field sqrsum 1.9826822177154e-005
field min 9.4416e-006
field max 9.66949e-005
statistic Basic.rack[13].node[9].app 	hops
field count 20156
field mean 6.3237249454257
field stddev 1.431105256117
field sum 127461
field sqrsum 847307
field min 4
field max 9
statistic Basic.rack[13].eps.queue[0] 	dropsum
field count 0
field mean nan
field stddev nan
field sum 0
field sqrsum 0
field min nan
field max nan
statistic Basic.rack[13].eps.queue[1] 	dropsum
field count 0
field mean nan
field stddev nan
field sum 0
field sqrsum 0
field min nan
field max nan
statistic Basic.rack[13].eps.queue[2] 	dropsum
field count 0
field mean nan
field stddev nan
field sum 0
field sqrsum 0
field min nan
field max nan
statistic Basic.rack[13].eps.queue[3] 	dropsum
field count 0
field mean nan
field stddev nan
field sum 0
field sqrsum 0
field min nan
field max nan
statistic Basic.rack[14].node[0].app 	throughput
field count 20306
field mean 10153.5
field stddev 5861.9816188726
field sum 206176971
field sqrsum 2791155107741
field min 1
field max 20306
statistic Basic.rack[14].node[0].app 	"End-to-End Delay"
field count 20306
field mean 2.1643693270265e-005
field stddev 1.0181077774699e-005
field sum 0.43949683554599
field sqrsum 1.1617036170018e-005
field min 8.992e-006
field max 7.5629343e-005
statistic Basic.rack[14].node[0].app 	hops
field count 20306
field mean 5.8870777110214
field stddev 1.5065819508593
field sum 119543
field sqrsum 749847
field min 3
field max 8
statistic Basic.rack[14].node[1].app 	throughput
field count 19660
field mean 9830.5
field stddev 5675.4974818659
field sum 193267630
field sqrsum 2533158826410
field min 1
field max 19660
statistic Basic.rack[14].node[1].app 	"End-to-End Delay"
field count 19660
field mean 2.1724531611088e-005
field stddev 1.0220438418354e-005
field sum 0.42710429147399
field sqrsum 1.1332167950366e-005
field min 8.992e-006
field max 0.000101947314
statistic Basic.rack[14].node[1].app 	hops
field count 19660
field mean 5.9081892166836
field stddev 1.4988216463919
field sum 116155
field sqrsum 730429
field min 3
field max 8
statistic Basic.rack[14].node[2].app 	throughput
field count 19871
field mean 9936
field stddev 5736.4079352849
field sum 197438256
field sqrsum 2615596202736
field min 1
field max 19871
statistic Basic.rack[14].node[2].app 	"End-to-End Delay"
field count 19871
field mean 2.1878665510895e-005
field stddev 1.0186802316776e-005
field sum 0.43475096236699
field sqrsum 1.1573699492601e-005
field min 8.992e-006
field max 8.9869431e-005
statistic Basic.rack[14].node[2].app 	hops
field count 19871
field mean 5.9325147199436
field stddev 1.4918416324929
field sum 117885
field sqrsum 743577
field min 3
field max 8
statistic Basic.rack[14].node[3].app 	throughput
field count 19888
field mean 9944.5
field stddev 5741.3154125746
field sum 197776216
field sqrsum 2622314847944
field min 1
field max 19888
statistic Basic.rack[14].node[3].app 	"End-to-End Delay"
field count 19888
field mean 2.183003163219e-005
field stddev 1.0181811763614e-005
field sum 0.434155669101
field sqrsum 1.1539303175703e-005
field min 8.992e-006
field max 8.7483989e-005
statistic Basic.rack[14].node[3].app 	hops
field count 19888
field mean 5.9201025744167
field stddev 1.4983278420487
field sum 117739
field sqrsum 741673
field min 3
field max 8
statistic Basic.rack[14].node[4].app 	throughput
field count 20242
field mean 10121.5
field stddev 5843.5064102529
field sum 204879403
field sqrsum 2764847543485
field min 1
field max 20242
statistic Basic.rack[14].node[4].app 	"End-to-End Delay"
field count 20242
field mean 2.1817802080723e-005
field stddev 1.0216816556547e-005
field sum 0.44163594971799
field sqrsum 1.1748348938755e-005
field min 8.992e-006
field max 8.9764106e-005
statistic Basic.rack[14].node[4].app 	hops
field count 20242
field mean 5.9232289299476
field stddev 1.4999414997261
field sum 119898
field sqrsum 755722
field min 3
field max 8
statistic Basic.rack[14].node[5].app 	throughput
field count 20025
field mean 10013
field stddev 5780.8639060265
field sum 200510325
field sqrsum 2676879675525
field min 1
field max 20025
statistic Basic.rack[14].node[5].app 	"End-to-End Delay"
field count 20025
field mean 2.1748416816529e-005
field stddev 1.0187103136938e-005
field sum 0.435512046751
field sqrsum 1.15497295775e-005
field min 8.992e-006
field max 7.816889e-005
statistic Basic.rack[14].node[5].app 	hops
field count 20025
field mean 5.9258926342072
field stddev 1.5022958969204
field sum 118666
field sqrsum 748394
field min 3
field max 8
statistic Basic.rack[14].node[6].app 	throughput
field count 19917
field mean 9959
field stddev 5749.6869914805
field sum 198353403
field sqrsum 2633802602835
field min 1
field max 19917
statistic Basic.rack[14].node[6].app 	"End-to-End Delay"
field count 19917
field mean 2.1777566661595e-005
field stddev 1.0148221004431e-005
field sum 0.43374379519899
field sqrsum 1.1496961348372e-005
field min 8.992e-006
field max 8.2819983e-005
statistic Basic.rack[14].node[6].app 	hops
field count 19917
field mean 5.9162524476578
field stddev 1.4953954412605
field sum 117834
field sqrsum 741672
field min 3
field max 8
statistic Basic.rack[14].node[7].app 	throughput
field count 20130
field mean 10065.5
field stddev 5811.1747951684
field sum 202618515
field sqrsum 2719208010805
field min 1
field max 20130
statistic Basic.rack[14].node[7].app 	"End-to-End Delay"
field count 20130
field mean 2.1774340626825e-005
field stddev 1.0171930370409e-005
field sum 0.43831747681799
field sqrsum 1.1626784785737e-005
field min 8.992e-006
field max 7.6084804e-005
statistic Basic.rack[14].node[7].app 	hops
field count 20130
field mean 5.9118231495281
field stddev 1.5023204945086
field sum 119005
field sqrsum 748967
field min 3
field max 8
statistic Basic.rack[14].node[8].app 	throughput
field count 19966
field mean 9983.5
field stddev 5763.8320730801
field sum 199330561
field sqrsum 2653289097471
field min 1
field max 19966
statistic Basic.rack[14].node[8].app 	"End-to-End Delay"
field count 19966
field mean 2.1834101661073e-005
field stddev 1.0207649799895e-005
field sum 0.43593967376499
field sqrsum 1.1598626579821e-005
field min 8.992e-006
field max 8.1220553e-005
statistic Basic.rack[14].node[8].app 	hops
field count 19966
field mean 5.9243213462887
field stddev 1.4963458212062
field sum 118285
field sqrsum 745461
field min 3
field max 8
statistic Basic.rack[14].node[9].app 	throughput
field count 20133
field mean 10067
field stddev 5812.0408205724
field sum 202678911
field sqrsum 2720423903079
field min 1
field max 20133
statistic Basic.rack[14].node[9].app 	"End-to-End Delay"
field count 20133
field mean 2.1847575684647e-005
field stddev 1.0171843177512e-005
field sum 0.43985724125899
field sqrsum 1.1692799805363e-005
field min 8.992e-006
field max 7.8165331e-005
statistic Basic.rack[14].node[9].app 	hops
field count 20133
field mean 5.9292206824616
field stddev 1.4842731329463
field sum 119373
field sqrsum 752141
field min 3
field max 8
statistic Basic.rack[14].eps.queue[0] 	dropsum
field count 0
field mean nan
field stddev nan
field sum 0
field sqrsum 0
field min nan
field max nan
statistic Basic.rack[14].eps.queue[1] 	dropsum
field count 0
field mean nan
field stddev nan
field sum 0
field sqrsum 0
field min nan
field max nan
statistic Basic.rack[14].eps.queue[2] 	dropsum
field count 0
field mean nan
field stddev nan
field sum 0
field sqrsum 0
field min nan
field max nan
statistic Basic.rack[14].eps.queue[3] 	dropsum
field count 0
field mean nan
field stddev nan
field sum 0
field sqrsum 0
field min nan
field max nan
statistic Basic.rack[15].node[0].app 	throughput
field count 20258
field mean 10129.5
field stddev 5848.1252124078
field sum 205203411
field sqrsum 2771408867829
field min 1
field max 20258
statistic Basic.rack[15].node[0].app 	"End-to-End Delay"
field count 20258
field mean 2.1753454614226e-005
field stddev 1.0096125501994e-005
field sum 0.44068148357499
field sqrsum 1.1651176115108e-005
field min 8.992e-006
field max 7.6629365e-005
statistic Basic.rack[15].node[0].app 	hops
field count 20258
field mean 5.9026063777273
field stddev 1.5022459758551
field sum 119575
field sqrsum 751519
field min 3
field max 8
statistic Basic.rack[15].node[1].app 	throughput
field count 19771
field mean 9886
field stddev 5707.5404218163
field sum 195456106
field sqrsum 2576306933186
field min 1
field max 19771
statistic Basic.rack[15].node[1].app 	"End-to-End Delay"
field count 19771
field mean 2.171405717991e-005
field stddev 1.01091815743e-005
field sum 0.42930862450399
field sqrsum 1.1342438085368e-005
field min 8.992e-006
field max 7.1574041e-005
statistic Basic.rack[15].node[1].app 	hops
field count 19771
field mean 5.9128521571999
field stddev 1.4935173399926
field sum 116903
field sqrsum 735329
field min 3
field max 8
statistic Basic.rack[15].node[2].app 	throughput
field count 20196
field mean 10098.5
field stddev 5830.2273540575
field sum 203949306
field sqrsum 2746041439086
field min 1
field max 20196
statistic Basic.rack[15].node[2].app 	"End-to-End Delay"
field count 20196
field mean 2.171257651525e-005
field stddev 1.0232600220244e-005
field sum 0.438507195302
field sqrsum 1.1635660866746e-005
field min 8.992e-006
field max 8.4379412e-005
statistic Basic.rack[15].node[2].app 	hops
field count 20196
field mean 5.9023073876015
field stddev 1.5023997058851
field sum 119203
field sqrsum 749157
field min 3
field max 8
statistic Basic.rack[15].node[3].app 	throughput
field count 19877
field mean 9939
field stddev 5738.1399860931
field sum 197557503
field sqrsum 2617966177255
field min 1
field max 19877
statistic Basic.rack[15].node[3].app 	"End-to-End Delay"
field count 19877
field mean 2.1689973366001e-005
field stddev 1.0247508132406e-005
field sum 0.43113160059599
field sqrsum 1.14384399762e-005
field min 8.992e-006
field max 7.8215926e-005
statistic Basic.rack[15].node[3].app 	hops
field count 19877
field mean 5.9090405996881
field stddev 1.5033929795659
field sum 117454
field sqrsum 738964
field min 3
field max 8
statistic Basic.rack[15].node[4].app 	throughput
field count 19817
field mean 9909
field stddev 5720.8194780119
field sum 196366653
field sqrsum 2594330763885
field min 1
field max 19817
statistic Basic.rack[15].node[4].app 	"End-to-End Delay"
field count 19817
field mean 2.1758595304889e-005
field stddev 1.0210884759701e-005
field sum 0.43119008315699
field sqrsum 1.1448149631579e-005
field min 8.992e-006
field max 8.1912729e-005
statistic Basic.rack[15].node[4].app 	hops
field count 19817
field mean 5.9340465257102
field stddev 1.4966454012424
field sum 117595
field sqrsum 742201
field min 3
field max 8
statistic Basic.rack[15].node[5].app 	throughput
field count 19756
field mean 9878.5
field stddev 5703.210294796
field sum 195159646
field sqrsum 2570447697466
field min 1
field max 19756
statistic Basic.rack[15].node[5].app 	"End-to-End Delay"
field count 19756
field mean 2.1768893241445e-005
field stddev 1.0148848891173e-005
field sum 0.43006625487799
field sqrsum 1.139681427772e-005
field min 8.992e-006
field max 7.7881602e-005
statistic Basic.rack[15].node[5].app 	hops
field count 19756
field mean 5.9258453128164
field stddev 1.4954645578042
field sum 117071
field sqrsum 737925
field min 3
field max 8
statistic Basic.rack[15].node[6].app 	throughput
field count 20179
field mean 10090
field stddev 5825.3198767679
field sum 203606110
field sqrsum 2739112997830
field min 1
field max 20179
statistic Basic.rack[15].node[6].app 	"End-to-End Delay"
field count 20179
field mean 2.1785237216462e-005
field stddev 1.0162501902429e-005
field sum 0.43960430179099
field sqrsum 1.1660796101427e-005
field min 8.992e-006
field max 7.6535308e-005
statistic Basic.rack[15].node[6].app 	hops
field count 20179
field mean 5.9201645274791
field stddev 1.4900865967795
field sum 119463
field sqrsum 752043
field min 3
field max 8
statistic Basic.rack[15].node[7].app 	throughput
field count 20173
field mean 10087
field stddev 5823.5878259598
field sum 203485051
field sqrsum 2736670450899
field min 1
field max 20173
statistic Basic.rack[15].node[7].app 	"End-to-End Delay"
field count 20173
field mean 2.1798109870966e-005
field stddev 1.024769071126e-005
field sum 0.43973327042699
field sqrsum 1.1703720049325e-005
field min 8.992e-006
field max 7.7984015e-005
statistic Basic.rack[15].node[7].app 	hops
field count 20173
field mean 5.9062112724929
field stddev 1.5078378038537
field sum 119146
field sqrsum 749564
field min 3
field max 8
statistic Basic.rack[15].node[8].app 	throughput
field count 20216
field mean 10108.5
field stddev 5836.0008567511
field sum 204353436
field sqrsum 2754207492596
field min 1
field max 20216
statistic Basic.rack[15].node[8].app 	"End-to-End Delay"
field count 20216
field mean 2.1829105241887e-005
field stddev 1.0226590040059e-005
field sum 0.44129719157
field sqrsum 1.1747271090606e-005
field min 8.992e-006
field max 8.9483854e-005
statistic Basic.rack[15].node[8].app 	hops
field count 20216
field mean 5.911703601108
field stddev 1.4956675982917
field sum 119511
field sqrsum 751735
field min 3
field max 8
statistic Basic.rack[15].node[9].app 	throughput
field count 20142
field mean 10071.5
field stddev 5814.6388967846
field sum 202860153
field sqrsum 2724073754535
field min 1
field max 20142
statistic Basic.rack[15].node[9].app 	"End-to-End Delay"
field count 20142
field mean 2.1827409599444e-005
field stddev 1.0225043558217e-005
field sum 0.43964768415199
field sqrsum 1.1702142160504e-005
field min 8.992e-006
field max 8.0815048e-005
statistic Basic.rack[15].node[9].app 	hops
field count 20142
field mean 5.9165425479098
field stddev 1.5028349494573
field sum 119171
field sqrsum 750569
field min 3
field max 8
statistic Basic.rack[15].eps.queue[0] 	dropsum
field count 0
field mean nan
field stddev nan
field sum 0
field sqrsum 0
field min nan
field max nan
statistic Basic.rack[15].eps.queue[1] 	dropsum
field count 0
field mean nan
field stddev nan
field sum 0
field sqrsum 0
field min nan
field max nan
statistic Basic.rack[15].eps.queue[2] 	dropsum
field count 0
field mean nan
field stddev nan
field sum 0
field sqrsum 0
field min nan
field max nan
statistic Basic.rack[15].eps.queue[3] 	dropsum
field count 0
field mean nan
field stddev nan
field sum 0
field sqrsum 0
field min nan
field max nan
