version 2
run Basic-3-20180510-15:57:38-19916
attr configname Basic
attr datetime 20180510-15:57:38
attr experiment Basic
attr inifile omnetpp.ini
attr iterationvars "$0=exponential(0.5 ms), $1=4, $2=5"
attr iterationvarsf exponential(0.5_ms),4,5-
attr measurement "$0=exponential(0.5 ms), $1=4, $2=5"
attr network Networks.Basic
attr processid 19916
attr repetition 0
attr replication #0
attr resultdir results
attr runnumber 3
attr seedset 3
param **.frameCapacity 50
param **.packetLength "1024 bytes"
param **.pattern 4
param **.sendIaTime "exponential(0.5 ms)"
param **.tp 5

statistic Basic.rack[0].node[0].app 	throughput
field count 20126
field mean 10063.5
field stddev 5810.0200946296
field sum 202538001
field sqrsum 2717587384751
field min 1
field max 20126
statistic Basic.rack[0].node[0].app 	"End-to-End Delay"
field count 20126
field mean 2.552228134781e-005
field stddev 8.7640305140275e-006
field sum 0.51366143440603
field sqrsum 1.4655577292303e-005
field min 1.7584e-005
field max 9.7496544e-005
statistic Basic.rack[0].node[0].app 	hops
field count 20126
field mean 5.2520620093412
field stddev 0.82544290920294
field sum 105703
field sqrsum 568871
field min 4
field max 6
statistic Basic.rack[0].node[1].app 	throughput
field count 19826
field mean 9913.5
field stddev 5723.417554224
field sum 196545051
field sqrsum 2597866969101
field min 1
field max 19826
statistic Basic.rack[0].node[1].app 	"End-to-End Delay"
field count 19826
field mean 2.5362582506357e-005
field stddev 8.6649610678642e-006
field sum 0.50283856077103
field sqrsum 1.4241776219781e-005
field min 1.7584e-005
field max 9.5544802e-005
statistic Basic.rack[0].node[1].app 	hops
field count 19826
field mean 5.2440734389186
field stddev 0.83425794073587
field sum 103969
field sqrsum 559019
field min 4
field max 6
statistic Basic.rack[0].node[2].app 	throughput
field count 19798
field mean 9899.5
field stddev 5715.3346504528
field sum 195990301
field sqrsum 2586875982899
field min 1
field max 19798
statistic Basic.rack[0].node[2].app 	"End-to-End Delay"
field count 19798
field mean 2.5423601468281e-005
field stddev 8.6488829605585e-006
field sum 0.50333646186903
field sqrsum 1.4277504095499e-005
field min 1.7584e-005
field max 9.2317897e-005
statistic Basic.rack[0].node[2].app 	hops
field count 19798
field mean 5.2447216890595
field stddev 0.82967038834789
field sum 103835
field sqrsum 558213
field min 4
field max 6
statistic Basic.rack[0].node[3].app 	throughput
field count 20045
field mean 10023
field stddev 5786.6374087202
field sum 200911035
field sqrsum 2684908101395
field min 1
field max 20045
statistic Basic.rack[0].node[3].app 	"End-to-End Delay"
field count 20045
field mean 2.5484338456873e-005
field stddev 8.8078396071952e-006
field sum 0.51083356436803
field sqrsum 1.4573229654103e-005
field min 1.7584e-005
field max 0.000108759288
statistic Basic.rack[0].node[3].app 	hops
field count 20045
field mean 5.2482414567224
field stddev 0.83061405130336
field sum 105201
field sqrsum 565949
field min 4
field max 6
statistic Basic.rack[0].node[4].app 	throughput
field count 19976
field mean 9988.5
field stddev 5766.7188244269
field sum 199530276
field sqrsum 2657277705676
field min 1
field max 19976
statistic Basic.rack[0].node[4].app 	"End-to-End Delay"
field count 19976
field mean 2.546502059892e-005
field stddev 8.8355638731492e-006
field sum 0.50868925148403
field sqrsum 1.4513174366896e-005
field min 1.7584e-005
field max 0.000102894361
statistic Basic.rack[0].node[4].app 	hops
field count 19976
field mean 5.2577092511013
field stddev 0.82596513956779
field sum 105028
field sqrsum 565834
field min 4
field max 6
statistic Basic.rack[0].node[5].app 	throughput
field count 19916
field mean 9958.5
field stddev 5749.3983163458
field sum 198333486
field sqrsum 2633405915946
field min 1
field max 19916
statistic Basic.rack[0].node[5].app 	"End-to-End Delay"
field count 19916
field mean 2.5394690203356e-005
field stddev 8.6446655749189e-006
field sum 0.50576065009003
field sqrsum 1.4331887813481e-005
field min 1.7584e-005
field max 0.000105229016
statistic Basic.rack[0].node[5].app 	hops
field count 19916
field mean 5.2439746937136
field stddev 0.83103035252103
field sum 104439
field sqrsum 561429
field min 4
field max 6
statistic Basic.rack[0].node[6].app 	throughput
field count 19654
field mean 9827.5
field stddev 5673.7654310578
field sum 193149685
field sqrsum 2530840322555
field min 1
field max 19654
statistic Basic.rack[0].node[6].app 	"End-to-End Delay"
field count 19654
field mean 2.5458281502953e-005
field stddev 8.6155662777572e-006
field sum 0.50035706465903
field sqrsum 1.4197033539956e-005
field min 1.7584e-005
field max 9.4012769e-005
statistic Basic.rack[0].node[6].app 	hops
field count 19654
field mean 5.2532817747024
field stddev 0.82877949747099
field sum 103248
field sqrsum 555890
field min 4
field max 6
statistic Basic.rack[0].node[7].app 	throughput
field count 19820
field mean 9910.5
field stddev 5721.6855034159
field sum 196426110
field sqrsum 2595509142170
field min 1
field max 19820
statistic Basic.rack[0].node[7].app 	"End-to-End Delay"
field count 19820
field mean 2.5384079727146e-005
field stddev 8.6119664727374e-006
field sum 0.50311246019203
field sqrsum 1.4240942091845e-005
field min 1.7584e-005
field max 9.2122012e-005
statistic Basic.rack[0].node[7].app 	hops
field count 19820
field mean 5.2483350151362
field stddev 0.83195474546177
field sum 104022
field sqrsum 559660
field min 4
field max 6
statistic Basic.rack[0].node[8].app 	throughput
field count 20063
field mean 10032
field stddev 5791.8335611445
field sum 201272016
field sqrsum 2692147395344
field min 1
field max 20063
statistic Basic.rack[0].node[8].app 	"End-to-End Delay"
field count 20063
field mean 2.5393140223298e-005
field stddev 8.5420214451847e-006
field sum 0.50946257230003
field sqrsum 1.4400701044419e-005
field min 1.7584e-005
field max 0.000105141772
statistic Basic.rack[0].node[8].app 	hops
field count 20063
field mean 5.2405422917809
field stddev 0.83043321530723
field sum 105141
field sqrsum 564831
field min 4
field max 6
statistic Basic.rack[0].node[9].app 	throughput
field count 19901
field mean 9951
field stddev 5745.0681893255
field sum 198034851
field sqrsum 2627460391451
field min 1
field max 19901
statistic Basic.rack[0].node[9].app 	"End-to-End Delay"
field count 19901
field mean 2.5373836111051e-005
field stddev 8.5559872383298e-006
field sum 0.50496471244603
field sqrsum 1.4269669716157e-005
field min 1.7584e-005
field max 8.642547e-005
statistic Basic.rack[0].node[9].app 	hops
field count 19901
field mean 5.2466207728255
field stddev 0.82825678922246
field sum 104413
field sqrsum 561467
field min 4
field max 6
statistic Basic.rack[0].eps.queue[0] 	dropsum
field count 0
field mean nan
field stddev nan
field sum 0
field sqrsum 0
field min nan
field max nan
statistic Basic.rack[0].eps.queue[1] 	dropsum
field count 0
field mean nan
field stddev nan
field sum 0
field sqrsum 0
field min nan
field max nan
statistic Basic.rack[0].eps.queue[2] 	dropsum
field count 0
field mean nan
field stddev nan
field sum 0
field sqrsum 0
field min nan
field max nan
statistic Basic.rack[0].eps.queue[3] 	dropsum
field count 0
field mean nan
field stddev nan
field sum 0
field sqrsum 0
field min nan
field max nan
statistic Basic.rack[1].node[0].app 	throughput
field count 19943
field mean 9972
field stddev 5757.1925449823
field sum 198871596
field sqrsum 2644130449884
field min 1
field max 19943
statistic Basic.rack[1].node[0].app 	"End-to-End Delay"
field count 19943
field mean 1.8059517580907e-005
field stddev 7.6568583435444e-006
field sum 0.36016095911603
field sqrsum 7.673482373152e-006
field min 9.4416e-006
field max 9.4070877e-005
statistic Basic.rack[1].node[0].app 	hops
field count 19943
field mean 5.9963897106754
field stddev 0.7038634326207
field sum 119586
field sqrsum 726964
field min 5
field max 7
statistic Basic.rack[1].node[1].app 	throughput
field count 19871
field mean 9936
field stddev 5736.4079352849
field sum 197438256
field sqrsum 2615596202736
field min 1
field max 19871
statistic Basic.rack[1].node[1].app 	"End-to-End Delay"
field count 19871
field mean 1.7950769248101e-005
field stddev 7.5505963062856e-006
field sum 0.35669973572902
field sqrsum 7.5358532429449e-006
field min 9.4416e-006
field max 8.521023e-005
statistic Basic.rack[1].node[1].app 	hops
field count 19871
field mean 6.0055357052992
field stddev 0.70804532823491
field sum 119336
field sqrsum 726638
field min 5
field max 7
statistic Basic.rack[1].node[2].app 	throughput
field count 20213
field mean 10107
field stddev 5835.1348313471
field sum 204292791
field sqrsum 2752981553919
field min 1
field max 20213
statistic Basic.rack[1].node[2].app 	"End-to-End Delay"
field count 20213
field mean 1.7908663587346e-005
field stddev 7.6304302583565e-006
field sum 0.36198781709102
field sqrsum 7.6595307323303e-006
field min 9.4416e-006
field max 8.6682976e-005
statistic Basic.rack[1].node[2].app 	hops
field count 20213
field mean 5.9952505813091
field stddev 0.71266649378085
field sum 121182
field sqrsum 736782
field min 5
field max 7
statistic Basic.rack[1].node[3].app 	throughput
field count 20124
field mean 10062.5
field stddev 5809.4427443603
field sum 202497750
field sqrsum 2716777313250
field min 1
field max 20124
statistic Basic.rack[1].node[3].app 	"End-to-End Delay"
field count 20124
field mean 1.8104152801532e-005
field stddev 7.7789602955074e-006
field sum 0.36432797097802
field sqrsum 7.8135367255031e-006
field min 9.4416e-006
field max 8.0383032e-005
statistic Basic.rack[1].node[3].app 	hops
field count 20124
field mean 5.9919499105546
field stddev 0.70588273185004
field sum 120582
field sqrsum 732548
field min 5
field max 7
statistic Basic.rack[1].node[4].app 	throughput
field count 20001
field mean 10001
field stddev 5773.9357027941
field sum 200030001
field sqrsum 2667266710001
field min 1
field max 20001
statistic Basic.rack[1].node[4].app 	"End-to-End Delay"
field count 20001
field mean 1.8154943330735e-005
field stddev 7.7620318814925e-006
field sum 0.36311702155802
field sqrsum 7.7973517273972e-006
field min 9.4416e-006
field max 8.7859012e-005
statistic Basic.rack[1].node[4].app 	hops
field count 20001
field mean 5.996400179991
field stddev 0.70603614684233
field sum 119934
field sqrsum 729142
field min 5
field max 7
statistic Basic.rack[1].node[5].app 	throughput
field count 19882
field mean 9941.5
field stddev 5739.5833617665
field sum 197656903
field sqrsum 2619942249265
field min 1
field max 19882
statistic Basic.rack[1].node[5].app 	"End-to-End Delay"
field count 19882
field mean 1.8091470151696e-005
field stddev 7.7584623189336e-006
field sum 0.35969460955602
field sqrsum 7.7041159888261e-006
field min 9.4416e-006
field max 9.7007205e-005
statistic Basic.rack[1].node[5].app 	hops
field count 19882
field mean 5.9925057841263
field stddev 0.70608824072042
field sum 119143
field sqrsum 723877
field min 5
field max 7
statistic Basic.rack[1].node[6].app 	throughput
field count 19977
field mean 9989
field stddev 5767.0074995616
field sum 199550253
field sqrsum 2657676786205
field min 1
field max 19977
statistic Basic.rack[1].node[6].app 	"End-to-End Delay"
field count 19977
field mean 1.802866578165e-005
field stddev 7.7216347778056e-006
field sum 0.36015865632002
field sqrsum 7.6842219485508e-006
field min 9.4416e-006
field max 0.0001012991
statistic Basic.rack[1].node[6].app 	hops
field count 19977
field mean 5.9981478700506
field stddev 0.71031826388092
field sum 119825
field sqrsum 728807
field min 5
field max 7
statistic Basic.rack[1].node[7].app 	throughput
field count 19895
field mean 9948
field stddev 5743.3361385174
field sum 197915460
field sqrsum 2625084689620
field min 1
field max 19895
statistic Basic.rack[1].node[7].app 	"End-to-End Delay"
field count 19895
field mean 1.8061314899222e-005
field stddev 7.7624241863308e-006
field sum 0.35932985992002
field sqrsum 7.6886872833792e-006
field min 9.4416e-006
field max 8.6512556e-005
statistic Basic.rack[1].node[7].app 	hops
field count 19895
field mean 5.9988941945212
field stddev 0.70891633084867
field sum 119348
field sqrsum 725954
field min 5
field max 7
statistic Basic.rack[1].node[8].app 	throughput
field count 19904
field mean 9952.5
field stddev 5745.9342147296
field sum 198094560
field sqrsum 2628648779680
field min 1
field max 19904
statistic Basic.rack[1].node[8].app 	"End-to-End Delay"
field count 19904
field mean 1.8055485007085e-005
field stddev 7.7803814921276e-006
field sum 0.35937637358102
field sqrsum 7.6935296177458e-006
field min 9.4416e-006
field max 9.3613973e-005
statistic Basic.rack[1].node[8].app 	hops
field count 19904
field mean 5.9950763665595
field stddev 0.70845616545219
field sum 119326
field sqrsum 725358
field min 5
field max 7
statistic Basic.rack[1].node[9].app 	throughput
field count 19764
field mean 9882.5
field stddev 5705.5196958735
field sum 195317730
field sqrsum 2573571516390
field min 1
field max 19764
statistic Basic.rack[1].node[9].app 	"End-to-End Delay"
field count 19764
field mean 1.8022101192574e-005
field stddev 7.6421632723981e-006
field sum 0.35618880797002
field sqrsum 7.5734825002405e-006
field min 9.4416e-006
field max 8.2229015e-005
statistic Basic.rack[1].node[9].app 	hops
field count 19764
field mean 5.9996458206841
field stddev 0.70680250275832
field sum 118577
field sqrsum 721293
field min 5
field max 7
statistic Basic.rack[1].eps.queue[0] 	dropsum
field count 0
field mean nan
field stddev nan
field sum 0
field sqrsum 0
field min nan
field max nan
statistic Basic.rack[1].eps.queue[1] 	dropsum
field count 0
field mean nan
field stddev nan
field sum 0
field sqrsum 0
field min nan
field max nan
statistic Basic.rack[1].eps.queue[2] 	dropsum
field count 0
field mean nan
field stddev nan
field sum 0
field sqrsum 0
field min nan
field max nan
statistic Basic.rack[1].eps.queue[3] 	dropsum
field count 0
field mean nan
field stddev nan
field sum 0
field sqrsum 0
field min nan
field max nan
statistic Basic.rack[2].node[0].app 	throughput
field count 19933
field mean 9967
field stddev 5754.3057936355
field sum 198672211
field sqrsum 2640155011979
field min 1
field max 19933
statistic Basic.rack[2].node[0].app 	"End-to-End Delay"
field count 19933
field mean 1.8047657668541e-005
field stddev 7.6298394560485e-006
field sum 0.35974396030702
field sqrsum 7.6528662638393e-006
field min 9.4416e-006
field max 8.6389787e-005
statistic Basic.rack[2].node[0].app 	hops
field count 19933
field mean 5.9963377314002
field stddev 0.70727465670393
field sum 119525
field sqrsum 726683
field min 5
field max 7
statistic Basic.rack[2].node[1].app 	throughput
field count 19951
field mean 9976
field stddev 5759.5019460598
field sum 199031176
field sqrsum 2647313671976
field min 1
field max 19951
statistic Basic.rack[2].node[1].app 	"End-to-End Delay"
field count 19951
field mean 1.8036957729388e-005
field stddev 7.6490846362065e-006
field sum 0.35985534365902
field sqrsum 7.6579401129206e-006
field min 9.4416e-006
field max 8.6585338e-005
statistic Basic.rack[2].node[1].app 	hops
field count 19951
field mean 6.0010024560172
field stddev 0.70841628413175
field sum 119726
field sqrsum 728488
field min 5
field max 7
statistic Basic.rack[2].node[2].app 	throughput
field count 20218
field mean 10109.5
field stddev 5836.5782070205
field sum 204393871
field sqrsum 2755024987209
field min 1
field max 20218
statistic Basic.rack[2].node[2].app 	"End-to-End Delay"
field count 20218
field mean 1.812984376986e-005
field stddev 7.8376570119341e-006
field sum 0.36654918133902
field sqrsum 7.8873868046146e-006
field min 9.4416e-006
field max 9.0285044e-005
statistic Basic.rack[2].node[2].app 	hops
field count 20218
field mean 5.9944109209615
field stddev 0.70870925291502
field sum 121195
field sqrsum 736647
field min 5
field max 7
statistic Basic.rack[2].node[3].app 	throughput
field count 19933
field mean 9967
field stddev 5754.3057936355
field sum 198672211
field sqrsum 2640155011979
field min 1
field max 19933
statistic Basic.rack[2].node[3].app 	"End-to-End Delay"
field count 19933
field mean 1.8171281897558e-005
field stddev 7.8071319019036e-006
field sum 0.36220816206402
field sqrsum 7.7966681001559e-006
field min 9.4416e-006
field max 0.000105294894
statistic Basic.rack[2].node[3].app 	hops
field count 19933
field mean 5.9988963026138
field stddev 0.70561435461032
field sum 119576
field sqrsum 727248
field min 5
field max 7
statistic Basic.rack[2].node[4].app 	throughput
field count 20126
field mean 10063.5
field stddev 5810.0200946296
field sum 202538001
field sqrsum 2717587384751
field min 1
field max 20126
statistic Basic.rack[2].node[4].app 	"End-to-End Delay"
field count 20126
field mean 1.8133038040198e-005
field stddev 7.8227243048531e-006
field sum 0.36494552359703
field sqrsum 7.8491207499234e-006
field min 9.4416e-006
field max 0.000106006599
statistic Basic.rack[2].node[4].app 	hops
field count 20126
field mean 5.9977640862566
field stddev 0.70592521145517
field sum 120711
field sqrsum 734025
field min 5
field max 7
statistic Basic.rack[2].node[5].app 	throughput
field count 19807
field mean 9904
field stddev 5717.932726665
field sum 196168528
field sqrsum 2590405412240
field min 1
field max 19807
statistic Basic.rack[2].node[5].app 	"End-to-End Delay"
field count 19807
field mean 1.8091242953099e-005
field stddev 7.819929603781e-006
field sum 0.35833324917202
field sqrsum 7.6938564970985e-006
field min 9.4416e-006
field max 8.9430309e-005
statistic Basic.rack[2].node[5].app 	hops
field count 19807
field mean 6.0016155904478
field stddev 0.70835339415156
field sum 118874
field sqrsum 723374
field min 5
field max 7
statistic Basic.rack[2].node[6].app 	throughput
field count 20161
field mean 10081
field stddev 5820.1237243436
field sum 203243041
field sqrsum 2731789714081
field min 1
field max 20161
statistic Basic.rack[2].node[6].app 	"End-to-End Delay"
field count 20161
field mean 1.8179744258917e-005
field stddev 7.8260034658665e-006
field sum 0.36652182400402
field sqrsum 7.8979990434997e-006
field min 9.4416e-006
field max 8.8344862e-005
statistic Basic.rack[2].node[6].app 	hops
field count 20161
field mean 5.991270274292
field stddev 0.70663183484305
field sum 120790
field sqrsum 733752
field min 5
field max 7
statistic Basic.rack[2].node[7].app 	throughput
field count 20101
field mean 10051
field stddev 5802.8032162625
field sum 202035151
field sqrsum 2707473058551
field min 1
field max 20101
statistic Basic.rack[2].node[7].app 	"End-to-End Delay"
field count 20101
field mean 1.8065029597434e-005
field stddev 7.7118072012399e-006
field sum 0.36312515993803
field sqrsum 7.7552533650663e-006
field min 9.4416e-006
field max 0.000104129327
statistic Basic.rack[2].node[7].app 	hops
field count 20101
field mean 5.9927864285359
field stddev 0.70893213900789
field sum 120461
field sqrsum 731999
field min 5
field max 7
statistic Basic.rack[2].node[8].app 	throughput
field count 19932
field mean 9966.5
field stddev 5754.0171185008
field sum 198652278
field sqrsum 2639757687490
field min 1
field max 19932
statistic Basic.rack[2].node[8].app 	"End-to-End Delay"
field count 19932
field mean 1.8104607554486e-005
field stddev 7.7529237244244e-006
field sum 0.36086103777602
field sqrsum 7.7312565561614e-006
field min 9.4416e-006
field max 0.000112547581
statistic Basic.rack[2].node[8].app 	hops
field count 19932
field mean 6.0037126229179
field stddev 0.70909872072263
field sum 119666
field sqrsum 728462
field min 5
field max 7
statistic Basic.rack[2].node[9].app 	throughput
field count 19924
field mean 9962.5
field stddev 5751.7077174233
field sum 198492850
field sqrsum 2636580526550
field min 1
field max 19924
statistic Basic.rack[2].node[9].app 	"End-to-End Delay"
field count 19924
field mean 1.8149901594109e-005
field stddev 7.793775172662e-006
field sum 0.36161863936103
field sqrsum 7.7735241421172e-006
field min 9.4416e-006
field max 8.5743134e-005
statistic Basic.rack[2].node[9].app 	hops
field count 19924
field mean 5.9917687211403
field stddev 0.70757334933234
field sum 119380
field sqrsum 725272
field min 5
field max 7
statistic Basic.rack[2].eps.queue[0] 	dropsum
field count 0
field mean nan
field stddev nan
field sum 0
field sqrsum 0
field min nan
field max nan
statistic Basic.rack[2].eps.queue[1] 	dropsum
field count 0
field mean nan
field stddev nan
field sum 0
field sqrsum 0
field min nan
field max nan
statistic Basic.rack[2].eps.queue[2] 	dropsum
field count 0
field mean nan
field stddev nan
field sum 0
field sqrsum 0
field min nan
field max nan
statistic Basic.rack[2].eps.queue[3] 	dropsum
field count 0
field mean nan
field stddev nan
field sum 0
field sqrsum 0
field min nan
field max nan
statistic Basic.rack[3].node[0].app 	throughput
field count 19801
field mean 9901
field stddev 5716.2006758569
field sum 196049701
field sqrsum 2588052102901
field min 1
field max 19801
statistic Basic.rack[3].node[0].app 	"End-to-End Delay"
field count 19801
field mean 1.9046055410282e-005
field stddev 1.0806763610445e-005
field sum 0.37713094317899
field sqrsum 9.4952224074133e-006
field min 8.992e-006
field max 0.000146288428
statistic Basic.rack[3].node[0].app 	hops
field count 19801
field mean 4.2441290843897
field stddev 0.8293809303202
field sum 84038
field sqrsum 370288
field min 3
field max 5
statistic Basic.rack[3].node[1].app 	throughput
field count 20279
field mean 10140
field stddev 5854.1873902362
field sum 205629060
field sqrsum 2780036348180
field min 1
field max 20279
statistic Basic.rack[3].node[1].app 	"End-to-End Delay"
field count 20279
field mean 1.9088317690221e-005
field stddev 1.0794220088237e-005
field sum 0.38709199443999
field sqrsum 9.7516299335507e-006
field min 8.992e-006
field max 0.000138871018
statistic Basic.rack[3].node[1].app 	hops
field count 20279
field mean 4.2464125449973
field stddev 0.827922694101
field sum 86113
field sqrsum 379571
field min 3
field max 5
statistic Basic.rack[3].node[2].app 	throughput
field count 20090
field mean 10045.5
field stddev 5799.627789781
field sum 201814095
field sqrsum 2703030717065
field min 1
field max 20090
statistic Basic.rack[3].node[2].app 	"End-to-End Delay"
field count 20090
field mean 1.9090083458237e-005
field stddev 1.087187395384e-005
field sum 0.38351977667599
field sqrsum 9.6958970002438e-006
field min 8.992e-006
field max 0.000151914447
statistic Basic.rack[3].node[2].app 	hops
field count 20090
field mean 4.2394723743156
field stddev 0.83052719385974
field sum 85171
field sqrsum 374937
field min 3
field max 5
statistic Basic.rack[3].node[3].app 	throughput
field count 20324
field mean 10162.5
field stddev 5867.1777712969
field sum 206542650
field sqrsum 2798584059950
field min 1
field max 20324
statistic Basic.rack[3].node[3].app 	"End-to-End Delay"
field count 20324
field mean 1.9060429649576e-005
field stddev 1.0744782373005e-005
field sum 0.38738417219799
field sqrsum 9.7300061888866e-006
field min 8.992e-006
field max 0.000147808694
statistic Basic.rack[3].node[3].app 	hops
field count 20324
field mean 4.2611690612084
field stddev 0.82688770533129
field sum 86604
field sqrsum 382930
field min 3
field max 5
statistic Basic.rack[3].node[4].app 	throughput
field count 19964
field mean 9982.5
field stddev 5763.2547228107
field sum 199290630
field sqrsum 2652491855090
field min 1
field max 19964
statistic Basic.rack[3].node[4].app 	"End-to-End Delay"
field count 19964
field mean 1.9039514614505e-005
field stddev 1.0623409262949e-005
field sum 0.38010486976399
field sqrsum 9.4899730077768e-006
field min 8.992e-006
field max 0.0001156612
statistic Basic.rack[3].node[4].app 	hops
field count 19964
field mean 4.2462933279904
field stddev 0.83046654567056
field sum 84773
field sqrsum 373739
field min 3
field max 5
statistic Basic.rack[3].node[5].app 	throughput
field count 19854
field mean 9927.5
field stddev 5731.5004579953
field sum 197100585
field sqrsum 2608889043255
field min 1
field max 19854
statistic Basic.rack[3].node[5].app 	"End-to-End Delay"
field count 19854
field mean 1.9169536589755e-005
field stddev 1.0951051842079e-005
field sum 0.38059197945299
field sqrsum 9.6766535509914e-006
field min 8.992e-006
field max 0.000107965388
statistic Basic.rack[3].node[5].app 	hops
field count 19854
field mean 4.2479601087942
field stddev 0.831017724898
field sum 84339
field sqrsum 371979
field min 3
field max 5
statistic Basic.rack[3].node[6].app 	throughput
field count 20069
field mean 10035
field stddev 5793.5656119526
field sum 201392415
field sqrsum 2694563381895
field min 1
field max 20069
statistic Basic.rack[3].node[6].app 	"End-to-End Delay"
field count 20069
field mean 1.9075861871194e-005
field stddev 1.0775879526098e-005
field sum 0.38283347189299
field sqrsum 9.6331661521298e-006
field min 8.992e-006
field max 0.000114275408
statistic Basic.rack[3].node[6].app 	hops
field count 20069
field mean 4.2511834172106
field stddev 0.8298180442349
field sum 85317
field sqrsum 376517
field min 3
field max 5
statistic Basic.rack[3].node[7].app 	throughput
field count 20075
field mean 10038
field stddev 5795.2976627607
field sum 201512850
field sqrsum 2696980813450
field min 1
field max 20075
statistic Basic.rack[3].node[7].app 	"End-to-End Delay"
field count 20075
field mean 1.907244989838e-005
field stddev 1.0800671564956e-005
field sum 0.38287943170999
field sqrsum 9.6441713369529e-006
field min 8.992e-006
field max 0.000111504961
statistic Basic.rack[3].node[7].app 	hops
field count 20075
field mean 4.2543462017435
field stddev 0.82928936298431
field sum 85406
field sqrsum 377152
field min 3
field max 5
statistic Basic.rack[3].node[8].app 	throughput
field count 20023
field mean 10012
field stddev 5780.2865557571
field sum 200470276
field sqrsum 2676077714324
field min 1
field max 20023
statistic Basic.rack[3].node[8].app 	"End-to-End Delay"
field count 20023
field mean 1.9047502669479e-005
field stddev 1.0678778523488e-005
field sum 0.38138814595099
field sqrsum 9.5477267420201e-006
field min 8.992e-006
field max 0.000110869747
statistic Basic.rack[3].node[8].app 	hops
field count 20023
field mean 4.2543075463217
field stddev 0.82746608907258
field sum 85184
field sqrsum 376108
field min 3
field max 5
statistic Basic.rack[3].node[9].app 	throughput
field count 19852
field mean 9926.5
field stddev 5730.9231077259
field sum 197060878
field sqrsum 2608100720330
field min 1
field max 19852
statistic Basic.rack[3].node[9].app 	"End-to-End Delay"
field count 19852
field mean 1.910896744469e-005
field stddev 1.0953359406107e-005
field sum 0.37935122171199
field sqrsum 9.6306553551255e-006
field min 8.992e-006
field max 0.000110730609
statistic Basic.rack[3].node[9].app 	hops
field count 19852
field mean 4.2515111827524
field stddev 0.8303595521037
field sum 84401
field sqrsum 372519
field min 3
field max 5
statistic Basic.rack[3].eps.queue[0] 	dropsum
field count 0
field mean nan
field stddev nan
field sum 0
field sqrsum 0
field min nan
field max nan
statistic Basic.rack[3].eps.queue[1] 	dropsum
field count 0
field mean nan
field stddev nan
field sum 0
field sqrsum 0
field min nan
field max nan
statistic Basic.rack[3].eps.queue[2] 	dropsum
field count 0
field mean nan
field stddev nan
field sum 0
field sqrsum 0
field min nan
field max nan
statistic Basic.rack[3].eps.queue[3] 	dropsum
field count 0
field mean nan
field stddev nan
field sum 0
field sqrsum 0
field min nan
field max nan
statistic Basic.rack[4].node[0].app 	throughput
field count 19907
field mean 9954
field stddev 5746.8002401336
field sum 198154278
field sqrsum 2629837526190
field min 1
field max 19907
statistic Basic.rack[4].node[0].app 	"End-to-End Delay"
field count 19907
field mean 2.7561602105039e-005
field stddev 1.0724527036009e-005
field sum 0.548668813105
field sqrsum 1.7411689662032e-005
field min 1.7584e-005
field max 0.000113841851
statistic Basic.rack[4].node[0].app 	hops
field count 19907
field mean 5.2534786758427
field stddev 0.82890083246319
field sum 104581
field sqrsum 563091
field min 4
field max 6
statistic Basic.rack[4].node[1].app 	throughput
field count 20176
field mean 10088.5
field stddev 5824.4538513638
field sum 203545576
field sqrsum 2737891542776
field min 1
field max 20176
statistic Basic.rack[4].node[1].app 	"End-to-End Delay"
field count 20176
field mean 2.7700039265712e-005
field stddev 1.0956779163593e-005
field sum 0.55887599222501
field sqrsum 1.7902916048778e-005
field min 1.7584e-005
field max 0.000161370004
statistic Basic.rack[4].node[1].app 	hops
field count 20176
field mean 5.2499504361618
field stddev 0.83077426004255
field sum 105923
field sqrsum 570015
field min 4
field max 6
statistic Basic.rack[4].node[2].app 	throughput
field count 20149
field mean 10075
field stddev 5816.6596227273
field sum 203001175
field sqrsum 2726914783775
field min 1
field max 20149
statistic Basic.rack[4].node[2].app 	"End-to-End Delay"
field count 20149
field mean 2.774475706318e-005
field stddev 1.0935778720133e-005
field sum 0.55902911006601
field sqrsum 1.7919651480261e-005
field min 1.7584e-005
field max 0.000146686823
statistic Basic.rack[4].node[2].app 	hops
field count 20149
field mean 5.2486475755621
field stddev 0.82965065705234
field sum 105755
field sqrsum 568939
field min 4
field max 6
statistic Basic.rack[4].node[3].app 	throughput
field count 20318
field mean 10159.5
field stddev 5865.4457204888
field sum 206420721
field sqrsum 2796106279759
field min 1
field max 20318
statistic Basic.rack[4].node[3].app 	"End-to-End Delay"
field count 20318
field mean 2.7615310685894e-005
field stddev 1.0798640323671e-005
field sum 0.561087882516
field sqrsum 1.7863794425181e-005
field min 1.7584e-005
field max 0.000134409588
statistic Basic.rack[4].node[3].app 	hops
field count 20318
field mean 5.2563736588247
field stddev 0.82688584364121
field sum 106799
field sqrsum 575267
field min 4
field max 6
statistic Basic.rack[4].node[4].app 	throughput
field count 20064
field mean 10032.5
field stddev 5792.1222362792
field sum 201292080
field sqrsum 2692549959440
field min 1
field max 20064
statistic Basic.rack[4].node[4].app 	"End-to-End Delay"
field count 20064
field mean 2.7877643133772e-005
field stddev 1.0949816023491e-005
field sum 0.559337031836
field sqrsum 1.7998521187663e-005
field min 1.7584e-005
field max 0.000118061094
statistic Basic.rack[4].node[4].app 	hops
field count 20064
field mean 5.2579744816587
field stddev 0.82673044698138
field sum 105496
field sqrsum 568408
field min 4
field max 6
statistic Basic.rack[4].node[5].app 	throughput
field count 19961
field mean 9981
field stddev 5762.3886974067
field sum 199230741
field sqrsum 2651296290981
field min 1
field max 19961
statistic Basic.rack[4].node[5].app 	"End-to-End Delay"
field count 19961
field mean 2.7799187012975e-005
field stddev 1.0914265629751e-005
field sum 0.554899571966
field sqrsum 1.7803416011469e-005
field min 1.7584e-005
field max 0.00011381256
statistic Basic.rack[4].node[5].app 	hops
field count 19961
field mean 5.2502379640299
field stddev 0.82814534830511
field sum 104800
field sqrsum 563914
field min 4
field max 6
statistic Basic.rack[4].node[6].app 	throughput
field count 19874
field mean 9937.5
field stddev 5737.273960689
field sum 197497875
field sqrsum 2616781011125
field min 1
field max 19874
statistic Basic.rack[4].node[6].app 	"End-to-End Delay"
field count 19874
field mean 2.7658793497434e-005
field stddev 1.0698507692597e-005
field sum 0.54969086196801
field sqrsum 1.7478411201081e-005
field min 1.7584e-005
field max 0.000137798965
statistic Basic.rack[4].node[6].app 	hops
field count 19874
field mean 5.2451947267787
field stddev 0.82859399689753
field sum 104243
field sqrsum 560419
field min 4
field max 6
statistic Basic.rack[4].node[7].app 	throughput
field count 19880
field mean 9940.5
field stddev 5739.0060114971
field sum 197617140
field sqrsum 2619151701180
field min 1
field max 19880
statistic Basic.rack[4].node[7].app 	"End-to-End Delay"
field count 19880
field mean 2.766822323154e-005
field stddev 1.0851863176358e-005
field sum 0.55004427784301
field sqrsum 1.7559757239497e-005
field min 1.7584e-005
field max 0.000142722917
statistic Basic.rack[4].node[7].app 	hops
field count 19880
field mean 5.2429577464789
field stddev 0.82987486562466
field sum 104230
field sqrsum 560164
field min 4
field max 6
statistic Basic.rack[4].node[8].app 	throughput
field count 20075
field mean 10038
field stddev 5795.2976627607
field sum 201512850
field sqrsum 2696980813450
field min 1
field max 20075
statistic Basic.rack[4].node[8].app 	"End-to-End Delay"
field count 20075
field mean 2.7743474146302e-005
field stddev 1.082221911273e-005
field sum 0.556950243487
field sqrsum 1.7802810123e-005
field min 1.7584e-005
field max 0.000146554036
statistic Basic.rack[4].node[8].app 	hops
field count 20075
field mean 5.2604732254047
field stddev 0.82536581521222
field sum 105604
field sqrsum 569202
field min 4
field max 6
statistic Basic.rack[4].node[9].app 	throughput
field count 20022
field mean 10011.5
field stddev 5779.9978806224
field sum 200450253
field sqrsum 2675676793795
field min 1
field max 20022
statistic Basic.rack[4].node[9].app 	"End-to-End Delay"
field count 20022
field mean 2.7507805489362e-005
field stddev 1.0673155536833e-005
field sum 0.55076128150801
field sqrsum 1.7430951426294e-005
field min 1.7584e-005
field max 0.000131310733
statistic Basic.rack[4].node[9].app 	hops
field count 20022
field mean 5.255419039057
field stddev 0.82889560885929
field sum 105224
field sqrsum 566752
field min 4
field max 6
statistic Basic.rack[4].eps.queue[0] 	dropsum
field count 0
field mean nan
field stddev nan
field sum 0
field sqrsum 0
field min nan
field max nan
statistic Basic.rack[4].eps.queue[1] 	dropsum
field count 0
field mean nan
field stddev nan
field sum 0
field sqrsum 0
field min nan
field max nan
statistic Basic.rack[4].eps.queue[2] 	dropsum
field count 0
field mean nan
field stddev nan
field sum 0
field sqrsum 0
field min nan
field max nan
statistic Basic.rack[4].eps.queue[3] 	dropsum
field count 0
field mean nan
field stddev nan
field sum 0
field sqrsum 0
field min nan
field max nan
statistic Basic.rack[5].node[0].app 	throughput
field count 20045
field mean 10023
field stddev 5786.6374087202
field sum 200911035
field sqrsum 2684908101395
field min 1
field max 20045
statistic Basic.rack[5].node[0].app 	"End-to-End Delay"
field count 20045
field mean 1.9609917838364e-005
field stddev 1.0923608796989e-005
field sum 0.39308080307
field sqrsum 1.0100037145116e-005
field min 9.4416e-006
field max 0.000111513353
statistic Basic.rack[5].node[0].app 	hops
field count 20045
field mean 6.2526315789474
field stddev 0.82904859733413
field sum 125334
field sqrsum 797444
field min 5
field max 7
statistic Basic.rack[5].node[1].app 	throughput
field count 20049
field mean 10025
field stddev 5787.7921092589
field sum 200991225
field sqrsum 2686515710425
field min 1
field max 20049
statistic Basic.rack[5].node[1].app 	"End-to-End Delay"
field count 20049
field mean 1.9727468293531e-005
field stddev 1.1033851254181e-005
field sum 0.39551601181701
field sqrsum 1.024329085462e-005
field min 9.4416e-006
field max 0.000144586489
statistic Basic.rack[5].node[1].app 	hops
field count 20049
field mean 6.2433039054317
field stddev 0.83114394472244
field sum 125172
field sqrsum 795336
field min 5
field max 7
statistic Basic.rack[5].node[2].app 	throughput
field count 20201
field mean 10101
field stddev 5831.6707297309
field sum 204050301
field sqrsum 2748081437101
field min 1
field max 20201
statistic Basic.rack[5].node[2].app 	"End-to-End Delay"
field count 20201
field mean 1.9552251143904e-005
field stddev 1.0866607364456e-005
field sum 0.39497502535801
field sqrsum 1.0107930634757e-005
field min 9.4416e-006
field max 0.000142409107
statistic Basic.rack[5].node[2].app 	hops
field count 20201
field mean 6.2602841443493
field stddev 0.8258636634125
field sum 126464
field sqrsum 805478
field min 5
field max 7
statistic Basic.rack[5].node[3].app 	throughput
field count 20121
field mean 10061
field stddev 5808.5767189562
field sum 202437381
field sqrsum 2715562507861
field min 1
field max 20121
statistic Basic.rack[5].node[3].app 	"End-to-End Delay"
field count 20121
field mean 1.9546737488396e-005
field stddev 1.0997243798908e-005
field sum 0.39329990500401
field sqrsum 1.0121030145317e-005
field min 9.4416e-006
field max 0.000133008978
statistic Basic.rack[5].node[3].app 	hops
field count 20121
field mean 6.2464092241936
field stddev 0.83351465091065
field sum 125684
field sqrsum 799052
field min 5
field max 7
statistic Basic.rack[5].node[4].app 	throughput
field count 20130
field mean 10065.5
field stddev 5811.1747951684
field sum 202618515
field sqrsum 2719208010805
field min 1
field max 20130
statistic Basic.rack[5].node[4].app 	"End-to-End Delay"
field count 20130
field mean 1.959500316473e-005
field stddev 1.0885078456659e-005
field sum 0.39444741370601
field sqrsum 1.0114181536399e-005
field min 9.4416e-006
field max 0.000140701445
statistic Basic.rack[5].node[4].app 	hops
field count 20130
field mean 6.2491803278689
field stddev 0.82973789517159
field sum 125796
field sqrsum 799980
field min 5
field max 7
statistic Basic.rack[5].node[5].app 	throughput
field count 20113
field mean 10057
field stddev 5806.2673178787
field sum 202276441
field sqrsum 2712324797369
field min 1
field max 20113
statistic Basic.rack[5].node[5].app 	"End-to-End Delay"
field count 20113
field mean 1.9613826990007e-005
field stddev 1.0907303315804e-005
field sum 0.39449290225
field sqrsum 1.0130225403726e-005
field min 9.4416e-006
field max 0.000140872615
statistic Basic.rack[5].node[5].app 	hops
field count 20113
field mean 6.2425297071546
field stddev 0.82915440124671
field sum 125556
field sqrsum 797614
field min 5
field max 7
statistic Basic.rack[5].node[6].app 	throughput
field count 19737
field mean 9869
field stddev 5697.7254672369
field sum 194784453
field sqrsum 2563038760725
field min 1
field max 19737
statistic Basic.rack[5].node[6].app 	"End-to-End Delay"
field count 19737
field mean 1.9473087983483e-005
field stddev 1.0762872056665e-005
field sum 0.38434033753
field sqrsum 9.7704999009505e-006
field min 9.4416e-006
field max 0.000138962514
statistic Basic.rack[5].node[6].app 	hops
field count 19737
field mean 6.2476060191518
field stddev 0.82831397584632
field sum 123309
field sqrsum 783927
field min 5
field max 7
statistic Basic.rack[5].node[7].app 	throughput
field count 19843
field mean 9922
field stddev 5728.3250315137
field sum 196882246
field sqrsum 2604555232334
field min 1
field max 19843
statistic Basic.rack[5].node[7].app 	"End-to-End Delay"
field count 19843
field mean 1.9607712937963e-005
field stddev 1.0967338564149e-005
field sum 0.38907584782801
field sqrsum 1.0015533201521e-005
field min 9.4416e-006
field max 0.000131174918
statistic Basic.rack[5].node[7].app 	hops
field count 19843
field mean 6.2635690167817
field stddev 0.82446752577034
field sum 124288
field sqrsum 791974
field min 5
field max 7
statistic Basic.rack[5].node[8].app 	throughput
field count 20107
field mean 10054
field stddev 5804.5352670706
field sum 202155778
field sqrsum 2709898204090
field min 1
field max 20107
statistic Basic.rack[5].node[8].app 	"End-to-End Delay"
field count 20107
field mean 1.9525694598498e-005
field stddev 1.0814591928804e-005
field sum 0.39260314129201
field sqrsum 1.001735427926e-005
field min 9.4416e-006
field max 0.000133987792
statistic Basic.rack[5].node[8].app 	hops
field count 20107
field mean 6.2611030984234
field stddev 0.82435354985317
field sum 125892
field sqrsum 801886
field min 5
field max 7
statistic Basic.rack[5].node[9].app 	throughput
field count 19759
field mean 9880
field stddev 5704.0763202
field sum 195218920
field sqrsum 2571618833160
field min 1
field max 19759
statistic Basic.rack[5].node[9].app 	"End-to-End Delay"
field count 19759
field mean 1.9494569577863e-005
field stddev 1.0823249026384e-005
field sum 0.385193200289
field sqrsum 9.8236814955804e-006
field min 9.4416e-006
field max 0.0001273642
statistic Basic.rack[5].node[9].app 	hops
field count 19759
field mean 6.2518852168632
field stddev 0.82853769241196
field sum 123531
field sqrsum 785865
field min 5
field max 7
statistic Basic.rack[5].eps.queue[0] 	dropsum
field count 0
field mean nan
field stddev nan
field sum 0
field sqrsum 0
field min nan
field max nan
statistic Basic.rack[5].eps.queue[1] 	dropsum
field count 0
field mean nan
field stddev nan
field sum 0
field sqrsum 0
field min nan
field max nan
statistic Basic.rack[5].eps.queue[2] 	dropsum
field count 0
field mean nan
field stddev nan
field sum 0
field sqrsum 0
field min nan
field max nan
statistic Basic.rack[5].eps.queue[3] 	dropsum
field count 0
field mean nan
field stddev nan
field sum 0
field sqrsum 0
field min nan
field max nan
statistic Basic.rack[6].node[0].app 	throughput
field count 19887
field mean 9944
field stddev 5741.0267374399
field sum 197756328
field sqrsum 2621919315400
field min 1
field max 19887
statistic Basic.rack[6].node[0].app 	"End-to-End Delay"
field count 19887
field mean 1.9502100043144e-005
field stddev 1.0772952403445e-005
field sum 0.387838263558
field sqrsum 9.8715602448079e-006
field min 9.4416e-006
field max 0.00013156651
statistic Basic.rack[6].node[0].app 	hops
field count 19887
field mean 6.2539850153367
field stddev 0.83050441818929
field sum 124373
field sqrsum 791543
field min 5
field max 7
statistic Basic.rack[6].node[1].app 	throughput
field count 19991
field mean 9996
field stddev 5771.0489514472
field sum 199830036
field sqrsum 2663268109796
field min 1
field max 19991
statistic Basic.rack[6].node[1].app 	"End-to-End Delay"
field count 19991
field mean 1.9593001222951e-005
field stddev 1.0795521033182e-005
field sum 0.391683687448
field sqrsum 1.0003959021992e-005
field min 9.4416e-006
field max 0.000116061454
statistic Basic.rack[6].node[1].app 	hops
field count 19991
field mean 6.249812415587
field stddev 0.82943705170392
field sum 124940
field sqrsum 794604
field min 5
field max 7
statistic Basic.rack[6].node[2].app 	throughput
field count 19933
field mean 9967
field stddev 5754.3057936355
field sum 198672211
field sqrsum 2640155011979
field min 1
field max 19933
statistic Basic.rack[6].node[2].app 	"End-to-End Delay"
field count 19933
field mean 1.9370991622486e-005
field stddev 1.0677327586785e-005
field sum 0.386121976011
field sqrsum 9.7519196884182e-006
field min 9.4416e-006
field max 0.00011050662
statistic Basic.rack[6].node[2].app 	hops
field count 19933
field mean 6.2498871218582
field stddev 0.83100152123652
field sum 124579
field sqrsum 792369
field min 5
field max 7
statistic Basic.rack[6].node[3].app 	throughput
field count 19936
field mean 9968.5
field stddev 5755.1718190395
field sum 198732016
field sqrsum 2641347224656
field min 1
field max 19936
statistic Basic.rack[6].node[3].app 	"End-to-End Delay"
field count 19936
field mean 1.9521236034862e-005
field stddev 1.0889270476227e-005
field sum 0.389175361591
field sqrsum 9.9610008689114e-006
field min 9.4416e-006
field max 0.000135704459
statistic Basic.rack[6].node[3].app 	hops
field count 19936
field mean 6.2478430979133
field stddev 0.82912881392355
field sum 124557
field sqrsum 791917
field min 5
field max 7
statistic Basic.rack[6].node[4].app 	throughput
field count 19949
field mean 9975
field stddev 5758.9245957904
field sum 198991275
field sqrsum 2646517627075
field min 1
field max 19949
statistic Basic.rack[6].node[4].app 	"End-to-End Delay"
field count 19949
field mean 1.954208090556e-005
field stddev 1.0810902685175e-005
field sum 0.38984497198501
field sqrsum 9.9498167884459e-006
field min 9.4416e-006
field max 0.000110714326
statistic Basic.rack[6].node[4].app 	hops
field count 19949
field mean 6.2541982054238
field stddev 0.82551188160324
field sum 124765
field sqrsum 793899
field min 5
field max 7
statistic Basic.rack[6].node[5].app 	throughput
field count 20257
field mean 10129
field stddev 5847.8365372731
field sum 205183153
field sqrsum 2770998481265
field min 1
field max 20257
statistic Basic.rack[6].node[5].app 	"End-to-End Delay"
field count 20257
field mean 1.9551966043738e-005
field stddev 1.0855192756169e-005
field sum 0.39606417614801
field sqrsum 1.0130703332361e-005
field min 9.4416e-006
field max 0.000140381633
statistic Basic.rack[6].node[5].app 	hops
field count 20257
field mean 6.2563558276151
field stddev 0.82831459273255
field sum 126735
field sqrsum 806797
field min 5
field max 7
statistic Basic.rack[6].node[6].app 	throughput
field count 19753
field mean 9877
field stddev 5702.3442693919
field sum 195100381
field sqrsum 2569276917389
field min 1
field max 19753
statistic Basic.rack[6].node[6].app 	"End-to-End Delay"
field count 19753
field mean 1.9542359802866e-005
field stddev 1.0801434181246e-005
field sum 0.386020233186
field sqrsum 9.8482314924108e-006
field min 9.4416e-006
field max 0.000147057303
statistic Basic.rack[6].node[6].app 	hops
field count 19753
field mean 6.250341720245
field stddev 0.83078976518139
field sum 123463
field sqrsum 785319
field min 5
field max 7
statistic Basic.rack[6].node[7].app 	throughput
field count 19791
field mean 9896
field stddev 5713.31392451
field sum 195851736
field sqrsum 2584133088696
field min 1
field max 19791
statistic Basic.rack[6].node[7].app 	"End-to-End Delay"
field count 19791
field mean 1.9549412765651e-005
field stddev 1.0800927708981e-005
field sum 0.38690242804501
field sqrsum 9.8724174451087e-006
field min 9.4416e-006
field max 0.000139008005
statistic Basic.rack[6].node[7].app 	hops
field count 19791
field mean 6.2446566621191
field stddev 0.83000126149837
field sum 123588
field sqrsum 785398
field min 5
field max 7
statistic Basic.rack[6].node[8].app 	throughput
field count 20113
field mean 10057
field stddev 5806.2673178787
field sum 202276441
field sqrsum 2712324797369
field min 1
field max 20113
statistic Basic.rack[6].node[8].app 	"End-to-End Delay"
field count 20113
field mean 1.951102828678e-005
field stddev 1.0909927813979e-005
field sum 0.39242531193201
field sqrsum 1.0050482830468e-005
field min 9.4416e-006
field max 0.000124554796
statistic Basic.rack[6].node[8].app 	hops
field count 20113
field mean 6.2507333565356
field stddev 0.831777137336
field sum 125721
field sqrsum 799763
field min 5
field max 7
statistic Basic.rack[6].node[9].app 	throughput
field count 19877
field mean 9939
field stddev 5738.1399860931
field sum 197557503
field sqrsum 2617966177255
field min 1
field max 19877
statistic Basic.rack[6].node[9].app 	"End-to-End Delay"
field count 19877
field mean 1.9525920756151e-005
field stddev 1.0812087994452e-005
field sum 0.38811672687
field sqrsum 9.9018656343924e-006
field min 9.4416e-006
field max 0.000111002196
statistic Basic.rack[6].node[9].app 	hops
field count 19877
field mean 6.242189465211
field stddev 0.83149962344622
field sum 124076
field sqrsum 788248
field min 5
field max 7
statistic Basic.rack[6].eps.queue[0] 	dropsum
field count 0
field mean nan
field stddev nan
field sum 0
field sqrsum 0
field min nan
field max nan
statistic Basic.rack[6].eps.queue[1] 	dropsum
field count 0
field mean nan
field stddev nan
field sum 0
field sqrsum 0
field min nan
field max nan
statistic Basic.rack[6].eps.queue[2] 	dropsum
field count 0
field mean nan
field stddev nan
field sum 0
field sqrsum 0
field min nan
field max nan
statistic Basic.rack[6].eps.queue[3] 	dropsum
field count 0
field mean nan
field stddev nan
field sum 0
field sqrsum 0
field min nan
field max nan
statistic Basic.rack[7].node[0].app 	throughput
field count 20101
field mean 10051
field stddev 5802.8032162625
field sum 202035151
field sqrsum 2707473058551
field min 1
field max 20101
statistic Basic.rack[7].node[0].app 	"End-to-End Delay"
field count 20101
field mean 1.6999031659618e-005
field stddev 8.8156025909236e-006
field sum 0.34169753538999
field sqrsum 7.370595687834e-006
field min 8.992e-006
field max 9.9591933e-005
statistic Basic.rack[7].node[0].app 	hops
field count 20101
field mean 4.2492910800458
field stddev 0.82744594141533
field sum 85415
field sqrsum 376715
field min 3
field max 5
statistic Basic.rack[7].node[1].app 	throughput
field count 20068
field mean 10034.5
field stddev 5793.2769368179
field sum 201372346
field sqrsum 2694160617134
field min 1
field max 20068
statistic Basic.rack[7].node[1].app 	"End-to-End Delay"
field count 20068
field mean 1.6782308295096e-005
field stddev 8.6271917270051e-006
field sum 0.33678736286599
field sqrsum 7.1456248006848e-006
field min 8.992e-006
field max 9.5765098e-005
statistic Basic.rack[7].node[1].app 	hops
field count 20068
field mean 4.2597169623281
field stddev 0.82633545136668
field sum 85484
field sqrsum 377840
field min 3
field max 5
statistic Basic.rack[7].node[2].app 	throughput
field count 20093
field mean 10047
field stddev 5800.493815185
field sum 201874371
field sqrsum 2704241782459
field min 1
field max 20093
statistic Basic.rack[7].node[2].app 	"End-to-End Delay"
field count 20093
field mean 1.6906305601055e-005
field stddev 8.6812885437037e-006
field sum 0.33969839844199
field sqrsum 7.2572739107415e-006
field min 8.992e-006
field max 0.000104859377
statistic Basic.rack[7].node[2].app 	hops
field count 20093
field mean 4.2398347683273
field stddev 0.8301756028254
field sum 85191
field sqrsum 375043
field min 3
field max 5
statistic Basic.rack[7].node[3].app 	throughput
field count 19916
field mean 9958.5
field stddev 5749.3983163458
field sum 198333486
field sqrsum 2633405915946
field min 1
field max 19916
statistic Basic.rack[7].node[3].app 	"End-to-End Delay"
field count 19916
field mean 1.6903094206667e-005
field stddev 8.6962202979118e-006
field sum 0.33664202421999
field sqrsum 7.196348737675e-006
field min 8.992e-006
field max 8.6182133e-005
statistic Basic.rack[7].node[3].app 	hops
field count 19916
field mean 4.2387527615987
field stddev 0.83302806549419
field sum 84419
field sqrsum 371651
field min 3
field max 5
statistic Basic.rack[7].node[4].app 	throughput
field count 20215
field mean 10108
field stddev 5835.7121816165
field sum 204333220
field sqrsum 2753798805940
field min 1
field max 20215
statistic Basic.rack[7].node[4].app 	"End-to-End Delay"
field count 20215
field mean 1.6821582920554e-005
field stddev 8.6610687616972e-006
field sum 0.34004829873899
field sqrsum 7.2364859161163e-006
field min 8.992e-006
field max 9.3954219e-005
statistic Basic.rack[7].node[4].app 	hops
field count 20215
field mean 4.247637892654
field stddev 0.83032477720907
field sum 85866
field sqrsum 378664
field min 3
field max 5
statistic Basic.rack[7].node[5].app 	throughput
field count 20120
field mean 10060.5
field stddev 5808.2880438215
field sum 202417260
field sqrsum 2715157653220
field min 1
field max 20120
statistic Basic.rack[7].node[5].app 	"End-to-End Delay"
field count 20120
field mean 1.6864514562027e-005
field stddev 8.6637265447911e-006
field sum 0.33931403298799
field sqrsum 7.232501762044e-006
field min 8.992e-006
field max 9.2111269e-005
statistic Basic.rack[7].node[5].app 	hops
field count 20120
field mean 4.2470675944334
field stddev 0.82810692004773
field sum 85451
field sqrsum 376713
field min 3
field max 5
statistic Basic.rack[7].node[6].app 	throughput
field count 20090
field mean 10045.5
field stddev 5799.627789781
field sum 201814095
field sqrsum 2703030717065
field min 1
field max 20090
statistic Basic.rack[7].node[6].app 	"End-to-End Delay"
field count 20090
field mean 1.6903988742956e-005
field stddev 8.7590817988676e-006
field sum 0.33960113384599
field sqrsum 7.2818722375552e-006
field min 8.992e-006
field max 8.9738577e-005
statistic Basic.rack[7].node[6].app 	hops
field count 20090
field mean 4.26112493778
field stddev 0.82774269904837
field sum 85606
field sqrsum 378542
field min 3
field max 5
statistic Basic.rack[7].node[7].app 	throughput
field count 19960
field mean 9980.5
field stddev 5762.100022272
field sum 199210780
field sqrsum 2650897849460
field min 1
field max 19960
statistic Basic.rack[7].node[7].app 	"End-to-End Delay"
field count 19960
field mean 1.6915314621292e-005
field stddev 8.6592090216362e-006
field sum 0.33762967984099
field sqrsum 7.207676019668e-006
field min 8.992e-006
field max 8.7564707e-005
statistic Basic.rack[7].node[7].app 	hops
field count 19960
field mean 4.2408316633267
field stddev 0.82865782503454
field sum 84647
field sqrsum 372679
field min 3
field max 5
statistic Basic.rack[7].node[8].app 	throughput
field count 19827
field mean 9914
field stddev 5723.7062293587
field sum 196564878
field sqrsum 2598260079030
field min 1
field max 19827
statistic Basic.rack[7].node[8].app 	"End-to-End Delay"
field count 19827
field mean 1.6786722650728e-005
field stddev 8.5954923104829e-006
field sum 0.33283034999599
field sqrsum 7.0519249833965e-006
field min 8.992e-006
field max 8.5409126e-005
statistic Basic.rack[7].node[8].app 	hops
field count 19827
field mean 4.2539970746961
field stddev 0.82990091923829
field sum 84344
field sqrsum 372454
field min 3
field max 5
statistic Basic.rack[7].node[9].app 	throughput
field count 20155
field mean 10078
field stddev 5818.3916735355
field sum 203122090
field sqrsum 2729351523330
field min 1
field max 20155
statistic Basic.rack[7].node[9].app 	"End-to-End Delay"
field count 20155
field mean 1.6941640305482e-005
field stddev 8.6525650133772e-006
field sum 0.34145876035699
field sqrsum 7.29373862306e-006
field min 8.992e-006
field max 8.9674477e-005
statistic Basic.rack[7].node[9].app 	hops
field count 20155
field mean 4.2581493425949
field stddev 0.82152039003265
field sum 85823
field sqrsum 379049
field min 3
field max 5
statistic Basic.rack[7].eps.queue[0] 	dropsum
field count 0
field mean nan
field stddev nan
field sum 0
field sqrsum 0
field min nan
field max nan
statistic Basic.rack[7].eps.queue[1] 	dropsum
field count 0
field mean nan
field stddev nan
field sum 0
field sqrsum 0
field min nan
field max nan
statistic Basic.rack[7].eps.queue[2] 	dropsum
field count 0
field mean nan
field stddev nan
field sum 0
field sqrsum 0
field min nan
field max nan
statistic Basic.rack[7].eps.queue[3] 	dropsum
field count 0
field mean nan
field stddev nan
field sum 0
field sqrsum 0
field min nan
field max nan
statistic Basic.rack[8].node[0].app 	throughput
field count 20096
field mean 10048.5
field stddev 5801.3598405891
field sum 201934656
field sqrsum 2705453209536
field min 1
field max 20096
statistic Basic.rack[8].node[0].app 	"End-to-End Delay"
field count 20096
field mean 2.535244217745e-005
field stddev 8.5922668985404e-006
field sum 0.50948267799803
field sqrsum 1.4400184713266e-005
field min 1.7584e-005
field max 9.361667e-005
statistic Basic.rack[8].node[0].app 	hops
field count 20096
field mean 5.2464669585987
field stddev 0.8328371829355
field sum 105433
field sqrsum 567089
field min 4
field max 6
statistic Basic.rack[8].node[1].app 	throughput
field count 19888
field mean 9944.5
field stddev 5741.3154125746
field sum 197776216
field sqrsum 2622314847944
field min 1
field max 19888
statistic Basic.rack[8].node[1].app 	"End-to-End Delay"
field count 19888
field mean 2.5425687880482e-005
field stddev 8.7373978179913e-006
field sum 0.50566608056703
field sqrsum 1.437512368921e-005
field min 1.7584e-005
field max 0.000113164965
statistic Basic.rack[8].node[1].app 	hops
field count 19888
field mean 5.2495474658085
field stddev 0.82764425824899
field sum 104403
field sqrsum 561691
field min 4
field max 6
statistic Basic.rack[8].node[2].app 	throughput
field count 19818
field mean 9909.5
field stddev 5721.1081531466
field sum 196386471
field sqrsum 2594723517009
field min 1
field max 19818
statistic Basic.rack[8].node[2].app 	"End-to-End Delay"
field count 19818
field mean 2.5478646736201e-005
field stddev 8.6706666074598e-006
field sum 0.50493582101803
field sqrsum 1.4354932572453e-005
field min 1.7584e-005
field max 0.000109501179
statistic Basic.rack[8].node[2].app 	hops
field count 19818
field mean 5.2537592088001
field stddev 0.82716546208572
field sum 104119
field sqrsum 560575
field min 4
field max 6
statistic Basic.rack[8].node[3].app 	throughput
field count 19764
field mean 9882.5
field stddev 5705.5196958735
field sum 195317730
field sqrsum 2573571516390
field min 1
field max 19764
statistic Basic.rack[8].node[3].app 	"End-to-End Delay"
field count 19764
field mean 2.54582238812e-005
field stddev 8.6320988609192e-006
field sum 0.50315633678803
field sqrsum 1.4282069672101e-005
field min 1.7584e-005
field max 0.00010278315
statistic Basic.rack[8].node[3].app 	hops
field count 19764
field mean 5.2489374620522
field stddev 0.82751192117971
field sum 103740
field sqrsum 558058
field min 4
field max 6
statistic Basic.rack[8].node[4].app 	throughput
field count 19853
field mean 9927
field stddev 5731.2117828606
field sum 197080731
field sqrsum 2608494861939
field min 1
field max 19853
statistic Basic.rack[8].node[4].app 	"End-to-End Delay"
field count 19853
field mean 2.5392538946861e-005
field stddev 8.5732785723558e-006
field sum 0.50411807571203
field sqrsum 1.4259981817308e-005
field min 1.7584e-005
field max 9.6602636e-005
statistic Basic.rack[8].node[4].app 	hops
field count 19853
field mean 5.2419281720647
field stddev 0.83039366957034
field sum 104068
field sqrsum 559206
field min 4
field max 6
statistic Basic.rack[8].node[5].app 	throughput
field count 20053
field mean 10027
field stddev 5788.9468097977
field sum 201071431
field sqrsum 2688123961039
field min 1
field max 20053
statistic Basic.rack[8].node[5].app 	"End-to-End Delay"
field count 20053
field mean 2.5428170598864e-005
field stddev 8.6649780184625e-006
field sum 0.50991110501903
field sqrsum 1.4471647705779e-005
field min 1.7584e-005
field max 9.7252017e-005
statistic Basic.rack[8].node[5].app 	hops
field count 20053
field mean 5.2466962549245
field stddev 0.83092391439319
field sum 105212
field sqrsum 565860
field min 4
field max 6
statistic Basic.rack[8].node[6].app 	throughput
field count 20077
field mean 10039
field stddev 5795.8750130301
field sum 201553003
field sqrsum 2697786945155
field min 1
field max 20077
statistic Basic.rack[8].node[6].app 	"End-to-End Delay"
field count 20077
field mean 2.553197266778e-005
field stddev 8.7008561858459e-006
field sum 0.51260541525103
field sqrsum 1.4607678991157e-005
field min 1.7584e-005
field max 9.9486024e-005
statistic Basic.rack[8].node[6].app 	hops
field count 20077
field mean 5.2442097922996
field stddev 0.83207633993697
field sum 105288
field sqrsum 566052
field min 4
field max 6
statistic Basic.rack[8].node[7].app 	throughput
field count 20395
field mean 10198
field stddev 5887.6737058593
field sum 207988210
field sqrsum 2828015691370
field min 1
field max 20395
statistic Basic.rack[8].node[7].app 	"End-to-End Delay"
field count 20395
field mean 2.5494836256878e-005
field stddev 8.670256474812e-006
field sum 0.51996718545902
field sqrsum 1.4789563497859e-005
field min 1.7584e-005
field max 9.6239083e-005
statistic Basic.rack[8].node[7].app 	hops
field count 20395
field mean 5.2504535425349
field stddev 0.82950527952746
field sum 107083
field sqrsum 576267
field min 4
field max 6
statistic Basic.rack[8].node[8].app 	throughput
field count 20169
field mean 10085
field stddev 5822.433125421
field sum 203404365
field sqrsum 2735042893245
field min 1
field max 20169
statistic Basic.rack[8].node[8].app 	"End-to-End Delay"
field count 20169
field mean 2.5439482130201e-005
field stddev 8.5708395651069e-006
field sum 0.51308891508402
field sqrsum 1.4534243264363e-005
field min 1.7584e-005
field max 9.8734846e-005
statistic Basic.rack[8].node[8].app 	hops
field count 20169
field mean 5.2587138678169
field stddev 0.82767575521941
field sum 106063
field sqrsum 571571
field min 4
field max 6
statistic Basic.rack[8].node[9].app 	throughput
field count 19835
field mean 9918
field stddev 5726.0156304362
field sum 196723530
field sqrsum 2601406386210
field min 1
field max 19835
statistic Basic.rack[8].node[9].app 	"End-to-End Delay"
field count 19835
field mean 2.5504464648249e-005
field stddev 8.6164858638749e-006
field sum 0.50588105629803
field sqrsum 1.4374777613865e-005
field min 1.7584e-005
field max 8.6230763e-005
statistic Basic.rack[8].node[9].app 	hops
field count 19835
field mean 5.2523317368288
field stddev 0.82770177708059
field sum 104180
field sqrsum 560776
field min 4
field max 6
statistic Basic.rack[8].eps.queue[0] 	dropsum
field count 0
field mean nan
field stddev nan
field sum 0
field sqrsum 0
field min nan
field max nan
statistic Basic.rack[8].eps.queue[1] 	dropsum
field count 0
field mean nan
field stddev nan
field sum 0
field sqrsum 0
field min nan
field max nan
statistic Basic.rack[8].eps.queue[2] 	dropsum
field count 0
field mean nan
field stddev nan
field sum 0
field sqrsum 0
field min nan
field max nan
statistic Basic.rack[8].eps.queue[3] 	dropsum
field count 0
field mean nan
field stddev nan
field sum 0
field sqrsum 0
field min nan
field max nan
statistic Basic.rack[9].node[0].app 	throughput
field count 20089
field mean 10045
field stddev 5799.3391146463
field sum 201794005
field sqrsum 2702627108965
field min 1
field max 20089
statistic Basic.rack[9].node[0].app 	"End-to-End Delay"
field count 20089
field mean 1.8054524935538e-005
field stddev 7.5981648936714e-006
field sum 0.36269735143002
field sqrsum 7.7080509961335e-006
field min 9.4416e-006
field max 8.0382595e-005
statistic Basic.rack[9].node[0].app 	hops
field count 20089
field mean 5.9983075314849
field stddev 0.70879236851717
field sum 120500
field sqrsum 732888
field min 5
field max 7
statistic Basic.rack[9].node[1].app 	throughput
field count 20279
field mean 10140
field stddev 5854.1873902362
field sum 205629060
field sqrsum 2780036348180
field min 1
field max 20279
statistic Basic.rack[9].node[1].app 	"End-to-End Delay"
field count 20279
field mean 1.8047951346567e-005
field stddev 7.6099293934251e-006
field sum 0.36599440535703
field sqrsum 7.7797689935112e-006
field min 9.4416e-006
field max 8.1346681e-005
statistic Basic.rack[9].node[1].app 	hops
field count 20279
field mean 5.9994575669412
field stddev 0.70717631097767
field sum 121663
field sqrsum 740053
field min 5
field max 7
statistic Basic.rack[9].node[2].app 	throughput
field count 19988
field mean 9994.5
field stddev 5770.1829260432
field sum 199770066
field sqrsum 2662069309494
field min 1
field max 19988
statistic Basic.rack[9].node[2].app 	"End-to-End Delay"
field count 19988
field mean 1.8114345725737e-005
field stddev 7.7937307498906e-006
field sum 0.36206954236603
field sqrsum 7.7727079981063e-006
field min 9.4416e-006
field max 9.1876789e-005
statistic Basic.rack[9].node[2].app 	hops
field count 19988
field mean 5.9972983790274
field stddev 0.70775582125477
field sum 119874
field sqrsum 728932
field min 5
field max 7
statistic Basic.rack[9].node[3].app 	throughput
field count 19667
field mean 9834
field stddev 5677.5182078088
field sum 193405278
field sqrsum 2535865536710
field min 1
field max 19667
statistic Basic.rack[9].node[3].app 	"End-to-End Delay"
field count 19667
field mean 1.8056382393249e-005
field stddev 7.6541420807965e-006
field sum 0.35511487252802
field sqrsum 7.5642400641645e-006
field min 9.4416e-006
field max 8.6677988e-005
statistic Basic.rack[9].node[3].app 	hops
field count 19667
field mean 6.0021864036203
field stddev 0.70580779881517
field sum 118045
field sqrsum 718325
field min 5
field max 7
statistic Basic.rack[9].node[4].app 	throughput
field count 20111
field mean 10056
field stddev 5805.6899676094
field sum 202236216
field sqrsum 2711515772056
field min 1
field max 20111
statistic Basic.rack[9].node[4].app 	"End-to-End Delay"
field count 20111
field mean 1.8086459778978e-005
field stddev 7.673603807356e-006
field sum 0.36373679261502
field sqrsum 7.7628720391046e-006
field min 9.4416e-006
field max 9.1167049e-005
statistic Basic.rack[9].node[4].app 	hops
field count 20111
field mean 6.0002983441897
field stddev 0.70566360563162
field sum 120672
field sqrsum 734082
field min 5
field max 7
statistic Basic.rack[9].node[5].app 	throughput
field count 20013
field mean 10007
field stddev 5777.3998044103
field sum 200270091
field sqrsum 2672070310819
field min 1
field max 20013
statistic Basic.rack[9].node[5].app 	"End-to-End Delay"
field count 20013
field mean 1.8041502741269e-005
field stddev 7.6340557680128e-006
field sum 0.36106459436102
field sqrsum 7.680423364012e-006
field min 9.4416e-006
field max 8.9015079e-005
statistic Basic.rack[9].node[5].app 	hops
field count 20013
field mean 6.0007495128167
field stddev 0.70890613562017
field sum 120093
field sqrsum 730705
field min 5
field max 7
statistic Basic.rack[9].node[6].app 	throughput
field count 19954
field mean 9977.5
field stddev 5760.3679714639
field sum 199091035
field sqrsum 2648508038605
field min 1
field max 19954
statistic Basic.rack[9].node[6].app 	"End-to-End Delay"
field count 19954
field mean 1.8000269148292e-005
field stddev 7.6571841409606e-006
field sum 0.35917737058502
field sqrsum 7.6351829958364e-006
field min 9.4416e-006
field max 8.4443245e-005
statistic Basic.rack[9].node[6].app 	hops
field count 19954
field mean 6.0010023053022
field stddev 0.70574036368049
field sum 119744
field sqrsum 728522
field min 5
field max 7
statistic Basic.rack[9].node[7].app 	throughput
field count 19811
field mean 9906
field stddev 5719.0874272037
field sum 196247766
field sqrsum 2591975077406
field min 1
field max 19811
statistic Basic.rack[9].node[7].app 	"End-to-End Delay"
field count 19811
field mean 1.8060833355864e-005
field stddev 7.7710986884564e-006
field sum 0.35780316961302
field sqrsum 7.6585488218784e-006
field min 9.4416e-006
field max 0.000106769276
statistic Basic.rack[9].node[7].app 	hops
field count 19811
field mean 5.9933370349806
field stddev 0.70939183374338
field sum 118734
field sqrsum 721582
field min 5
field max 7
statistic Basic.rack[9].node[8].app 	throughput
field count 20142
field mean 10071.5
field stddev 5814.6388967846
field sum 202860153
field sqrsum 2724073754535
field min 1
field max 20142
statistic Basic.rack[9].node[8].app 	"End-to-End Delay"
field count 20142
field mean 1.8100215085147e-005
field stddev 7.6718171056863e-006
field sum 0.36457453224503
field sqrsum 7.7843118079199e-006
field min 9.4416e-006
field max 8.6181954e-005
statistic Basic.rack[9].node[8].app 	hops
field count 20142
field mean 6.0004964750273
field stddev 0.70765056913712
field sum 120862
field sqrsum 735318
field min 5
field max 7
statistic Basic.rack[9].node[9].app 	throughput
field count 19830
field mean 9915.5
field stddev 5724.5722547628
field sum 196624365
field sqrsum 2599439646755
field min 1
field max 19830
statistic Basic.rack[9].node[9].app 	"End-to-End Delay"
field count 19830
field mean 1.8119627998085e-005
field stddev 7.8027432090366e-006
field sum 0.35931222320202
field sqrsum 7.7178488922375e-006
field min 9.4416e-006
field max 0.000106718489
statistic Basic.rack[9].node[9].app 	hops
field count 19830
field mean 6.0029752899647
field stddev 0.70519010112
field sum 119039
field sqrsum 724449
field min 5
field max 7
statistic Basic.rack[9].eps.queue[0] 	dropsum
field count 0
field mean nan
field stddev nan
field sum 0
field sqrsum 0
field min nan
field max nan
statistic Basic.rack[9].eps.queue[1] 	dropsum
field count 0
field mean nan
field stddev nan
field sum 0
field sqrsum 0
field min nan
field max nan
statistic Basic.rack[9].eps.queue[2] 	dropsum
field count 0
field mean nan
field stddev nan
field sum 0
field sqrsum 0
field min nan
field max nan
statistic Basic.rack[9].eps.queue[3] 	dropsum
field count 0
field mean nan
field stddev nan
field sum 0
field sqrsum 0
field min nan
field max nan
statistic Basic.rack[10].node[0].app 	throughput
field count 19971
field mean 9986
field stddev 5765.2754487535
field sum 199430406
field sqrsum 2655282902286
field min 1
field max 19971
statistic Basic.rack[10].node[0].app 	"End-to-End Delay"
field count 19971
field mean 1.808354269596e-005
field stddev 7.7391860522296e-006
field sum 0.36114643118102
field sqrsum 7.7269100727537e-006
field min 9.4416e-006
field max 0.000105978174
statistic Basic.rack[10].node[0].app 	hops
field count 19971
field mean 5.9994992739472
field stddev 0.70678785589938
field sum 119816
field sqrsum 728812
field min 5
field max 7
statistic Basic.rack[10].node[1].app 	throughput
field count 20225
field mean 10113
field stddev 5838.5989329633
field sum 204535425
field sqrsum 2757887492225
field min 1
field max 20225
statistic Basic.rack[10].node[1].app 	"End-to-End Delay"
field count 20225
field mean 1.808027372015e-005
field stddev 7.7048798000714e-006
field sum 0.36567353599003
field sqrsum 7.812078876278e-006
field min 9.4416e-006
field max 9.3525947e-005
statistic Basic.rack[10].node[1].app 	hops
field count 20225
field mean 6.0039060568603
field stddev 0.70327455939302
field sum 121429
field sqrsum 739051
field min 5
field max 7
statistic Basic.rack[10].node[2].app 	throughput
field count 19864
field mean 9932.5
field stddev 5734.3872093421
field sum 197299180
field sqrsum 2612833040740
field min 1
field max 19864
statistic Basic.rack[10].node[2].app 	"End-to-End Delay"
field count 19864
field mean 1.8107026791181e-005
field stddev 7.6882486610908e-006
field sum 0.35967798018002
field sqrsum 7.6867842168689e-006
field min 9.4416e-006
field max 9.1134735e-005
statistic Basic.rack[10].node[2].app 	hops
field count 19864
field mean 5.9923983084978
field stddev 0.70974872207088
field sum 119033
field sqrsum 723299
field min 5
field max 7
statistic Basic.rack[10].node[3].app 	throughput
field count 20020
field mean 10010.5
field stddev 5779.4205303531
field sum 200410210
field sqrsum 2674875072870
field min 1
field max 20020
statistic Basic.rack[10].node[3].app 	"End-to-End Delay"
field count 20020
field mean 1.8099799320031e-005
field stddev 7.7066366373323e-006
field sum 0.36235798238702
field sqrsum 7.7475801811309e-006
field min 9.4416e-006
field max 0.000111240334
statistic Basic.rack[10].node[3].app 	hops
field count 20020
field mean 6.0040959040959
field stddev 0.70421026001288
field sum 120202
field sqrsum 731632
field min 5
field max 7
statistic Basic.rack[10].node[4].app 	throughput
field count 19987
field mean 9994
field stddev 5769.8942509085
field sum 199750078
field sqrsum 2661669789350
field min 1
field max 19987
statistic Basic.rack[10].node[4].app 	"End-to-End Delay"
field count 19987
field mean 1.8107411407166e-005
field stddev 7.6538313192867e-006
field sum 0.36191283179503
field sqrsum 7.7241070802528e-006
field min 9.4416e-006
field max 9.3770251e-005
statistic Basic.rack[10].node[4].app 	hops
field count 19987
field mean 6.0061039675789
field stddev 0.70442182879066
field sum 120044
field sqrsum 730914
field min 5
field max 7
statistic Basic.rack[10].node[5].app 	throughput
field count 20086
field mean 10043.5
field stddev 5798.4730892423
field sum 201733741
field sqrsum 2701416525731
field min 1
field max 20086
statistic Basic.rack[10].node[5].app 	"End-to-End Delay"
field count 20086
field mean 1.8056832850146e-005
field stddev 7.5995466539678e-006
field sum 0.36268954462803
field sqrsum 7.7089956850548e-006
field min 9.4416e-006
field max 8.0892018e-005
statistic Basic.rack[10].node[5].app 	hops
field count 20086
field mean 6.0005974310465
field stddev 0.70645492260389
field sum 120528
field sqrsum 733264
field min 5
field max 7
statistic Basic.rack[10].node[6].app 	throughput
field count 19969
field mean 9985
field stddev 5764.6980984841
field sum 199390465
field sqrsum 2654485260545
field min 1
field max 19969
statistic Basic.rack[10].node[6].app 	"End-to-End Delay"
field count 19969
field mean 1.8010078777857e-005
field stddev 7.6458688977824e-006
field sum 0.35964326311502
field sqrsum 7.6445190267101e-006
field min 9.4416e-006
field max 0.000100840676
statistic Basic.rack[10].node[6].app 	hops
field count 19969
field mean 6.0012519405078
field stddev 0.70777818206156
field sum 119839
field sqrsum 729187
field min 5
field max 7
statistic Basic.rack[10].node[7].app 	throughput
field count 20127
field mean 10064
field stddev 5810.3087697643
field sum 202558128
field sqrsum 2717992480880
field min 1
field max 20127
statistic Basic.rack[10].node[7].app 	"End-to-End Delay"
field count 20127
field mean 1.8091974059126e-005
field stddev 7.6723923704901e-006
field sum 0.36413716188803
field sqrsum 7.7726892467675e-006
field min 9.4416e-006
field max 8.7925317e-005
statistic Basic.rack[10].node[7].app 	hops
field count 20127
field mean 6.000496845034
field stddev 0.70636840722045
field sum 120772
field sqrsum 734734
field min 5
field max 7
statistic Basic.rack[10].node[8].app 	throughput
field count 20013
field mean 10007
field stddev 5777.3998044103
field sum 200270091
field sqrsum 2672070310819
field min 1
field max 20013
statistic Basic.rack[10].node[8].app 	"End-to-End Delay"
field count 20013
field mean 1.8038219823316e-005
field stddev 7.5644842325762e-006
field sum 0.36099889332402
field sqrsum 7.6568924849109e-006
field min 9.4416e-006
field max 8.7287345e-005
statistic Basic.rack[10].node[8].app 	hops
field count 20013
field mean 5.99775146155
field stddev 0.70338331792368
field sum 120033
field sqrsum 729829
field min 5
field max 7
statistic Basic.rack[10].node[9].app 	throughput
field count 19830
field mean 9915.5
field stddev 5724.5722547628
field sum 196624365
field sqrsum 2599439646755
field min 1
field max 19830
statistic Basic.rack[10].node[9].app 	"End-to-End Delay"
field count 19830
field mean 1.8133777830662e-005
field stddev 7.7354570732675e-006
field sum 0.35959281438203
field sqrsum 7.7072899505147e-006
field min 9.4416e-006
field max 8.5553874e-005
statistic Basic.rack[10].node[9].app 	hops
field count 19830
field mean 6.0058497226425
field stddev 0.70570828132694
field sum 119096
field sqrsum 725148
field min 5
field max 7
statistic Basic.rack[10].eps.queue[0] 	dropsum
field count 0
field mean nan
field stddev nan
field sum 0
field sqrsum 0
field min nan
field max nan
statistic Basic.rack[10].eps.queue[1] 	dropsum
field count 0
field mean nan
field stddev nan
field sum 0
field sqrsum 0
field min nan
field max nan
statistic Basic.rack[10].eps.queue[2] 	dropsum
field count 0
field mean nan
field stddev nan
field sum 0
field sqrsum 0
field min nan
field max nan
statistic Basic.rack[10].eps.queue[3] 	dropsum
field count 0
field mean nan
field stddev nan
field sum 0
field sqrsum 0
field min nan
field max nan
statistic Basic.rack[11].node[0].app 	throughput
field count 19695
field mean 9848
field stddev 5685.60111158
field sum 193956360
field sqrsum 2546711658920
field min 1
field max 19695
statistic Basic.rack[11].node[0].app 	"End-to-End Delay"
field count 19695
field mean 1.9072415442802e-005
field stddev 1.0859250425668e-005
field sum 0.37563122214599
field sqrsum 9.4865765823423e-006
field min 8.992e-006
field max 0.000113647773
statistic Basic.rack[11].node[0].app 	hops
field count 19695
field mean 4.2552932216299
field stddev 0.8272789481735
field sum 83808
field sqrsum 370106
field min 3
field max 5
statistic Basic.rack[11].node[1].app 	throughput
field count 20008
field mean 10004.5
field stddev 5775.9564287369
field sum 200170036
field sqrsum 2670068110204
field min 1
field max 20008
statistic Basic.rack[11].node[1].app 	"End-to-End Delay"
field count 20008
field mean 1.9031627264544e-005
field stddev 1.0750899924447e-005
field sum 0.38078479830899
field sqrsum 9.5594004060748e-006
field min 8.992e-006
field max 0.00011797946
statistic Basic.rack[11].node[1].app 	hops
field count 20008
field mean 4.2471011595362
field stddev 0.82950332539675
field sum 84976
field sqrsum 374668
field min 3
field max 5
statistic Basic.rack[11].node[2].app 	throughput
field count 20176
field mean 10088.5
field stddev 5824.4538513638
field sum 203545576
field sqrsum 2737891542776
field min 1
field max 20176
statistic Basic.rack[11].node[2].app 	"End-to-End Delay"
field count 20176
field mean 1.9114335881443e-005
field stddev 1.0724881608596e-005
field sum 0.38565084074399
field sqrsum 9.6920504532752e-006
field min 8.992e-006
field max 0.000109125561
statistic Basic.rack[11].node[2].app 	hops
field count 20176
field mean 4.2445975416336
field stddev 0.83165117354
field sum 85639
field sqrsum 377457
field min 3
field max 5
statistic Basic.rack[11].node[3].app 	throughput
field count 20143
field mean 10072
field stddev 5814.9275719192
field sum 202880296
field sqrsum 2724479494984
field min 1
field max 20143
statistic Basic.rack[11].node[3].app 	"End-to-End Delay"
field count 20143
field mean 1.9082124822816e-005
field stddev 1.0864911087548e-005
field sum 0.38437124030599
field sqrsum 9.7123084182236e-006
field min 8.992e-006
field max 0.000126283415
statistic Basic.rack[11].node[3].app 	hops
field count 20143
field mean 4.2453457776895
field stddev 0.83022958395985
field sum 85514
field sqrsum 376920
field min 3
field max 5
statistic Basic.rack[11].node[4].app 	throughput
[...]
field min 9.4416e-006
field max 0.000111961713
statistic Basic.rack[13].node[1].app 	hops
field count 19891
field mean 6.2444321552461
field stddev 0.83070689763808
field sum 124208
field sqrsum 789334
field min 5
field max 7
statistic Basic.rack[13].node[2].app 	throughput
field count 20196
field mean 10098.5
field stddev 5830.2273540575
field sum 203949306
field sqrsum 2746041439086
field min 1
field max 20196
statistic Basic.rack[13].node[2].app 	"End-to-End Delay"
field count 20196
field mean 1.95260709286e-005
field stddev 1.0809825977104e-005
field sum 0.39434852847401
field sqrsum 1.0059910296521e-005
field min 9.4416e-006
field max 0.000121030033
statistic Basic.rack[13].node[2].app 	hops
field count 20196
field mean 6.2520796197267
field stddev 0.82860659610593
field sum 126267
field sqrsum 803297
field min 5
field max 7
statistic Basic.rack[13].node[3].app 	throughput
field count 19970
field mean 9985.5
field stddev 5764.9867736188
field sum 199410435
field sqrsum 2654884061445
field min 1
field max 19970
statistic Basic.rack[13].node[3].app 	"End-to-End Delay"
field count 19970
field mean 1.9551560657036e-005
field stddev 1.0761213691948e-005
field sum 0.39044466632101
field sqrsum 9.946287063943e-006
field min 9.4416e-006
field max 0.000115133003
statistic Basic.rack[13].node[3].app 	hops
field count 19970
field mean 6.2505758637957
field stddev 0.82659843914484
field sum 124824
field sqrsum 793866
field min 5
field max 7
statistic Basic.rack[13].node[4].app 	throughput
field count 20112
field mean 10056.5
field stddev 5805.978642744
field sum 202256328
field sqrsum 2711920264600
field min 1
field max 20112
statistic Basic.rack[13].node[4].app 	"End-to-End Delay"
field count 20112
field mean 1.9486732400856e-005
field stddev 1.0748793401387e-005
field sum 0.39191716204601
field sqrsum 9.9607406099213e-006
field min 9.4416e-006
field max 0.000110881732
statistic Basic.rack[13].node[4].app 	hops
field count 20112
field mean 6.248707239459
field stddev 0.8305239884446
field sum 125674
field sqrsum 799172
field min 5
field max 7
statistic Basic.rack[13].node[5].app 	throughput
field count 20174
field mean 10087.5
field stddev 5823.8765010944
field sum 203505225
field sqrsum 2737077441175
field min 1
field max 20174
statistic Basic.rack[13].node[5].app 	"End-to-End Delay"
field count 20174
field mean 1.9420741111926e-005
field stddev 1.0627543553778e-005
field sum 0.391794031192
field sqrsum 9.8873635187108e-006
field min 9.4416e-006
field max 0.000118999589
statistic Basic.rack[13].node[5].app 	hops
field count 20174
field mean 6.2512144344205
field stddev 0.82723809722273
field sum 126112
field sqrsum 802158
field min 5
field max 7
statistic Basic.rack[13].node[6].app 	throughput
field count 19845
field mean 9923
field stddev 5728.9023817831
field sum 196921935
field sqrsum 2605342840695
field min 1
field max 19845
statistic Basic.rack[13].node[6].app 	"End-to-End Delay"
field count 19845
field mean 1.9552419116654e-005
field stddev 1.0789623539583e-005
field sum 0.38801775737001
field sqrsum 9.8968444470457e-006
field min 9.4416e-006
field max 0.000107558581
statistic Basic.rack[13].node[6].app 	hops
field count 19845
field mean 6.2549760644999
field stddev 0.82985699017957
field sum 124130
field sqrsum 790096
field min 5
field max 7
statistic Basic.rack[13].node[7].app 	throughput
field count 19704
field mean 9852.5
field stddev 5688.1991877922
field sum 194133660
field sqrsum 2550204468980
field min 1
field max 19704
statistic Basic.rack[13].node[7].app 	"End-to-End Delay"
field count 19704
field mean 1.9553482827751e-005
field stddev 1.0788793265443e-005
field sum 0.38528182563801
field sqrsum 9.8269925400897e-006
field min 9.4416e-006
field max 0.000118332434
statistic Basic.rack[13].node[7].app 	hops
field count 19704
field mean 6.2339626471782
field stddev 0.82975645344897
field sum 122834
field sqrsum 779308
field min 5
field max 7
statistic Basic.rack[13].node[8].app 	throughput
field count 19752
field mean 9876.5
field stddev 5702.0555942572
field sum 195080628
field sqrsum 2568886736380
field min 1
field max 19752
statistic Basic.rack[13].node[8].app 	"End-to-End Delay"
field count 19752
field mean 1.939189281688e-005
field stddev 1.0687059879716e-005
field sum 0.38302866691901
field sqrsum 9.683476733169e-006
field min 9.4416e-006
field max 0.000101261391
statistic Basic.rack[13].node[8].app 	hops
field count 19752
field mean 6.2511138112596
field stddev 0.83152396508384
field sum 123472
field sqrsum 785494
field min 5
field max 7
statistic Basic.rack[13].node[9].app 	throughput
field count 20023
field mean 10012
field stddev 5780.2865557571
field sum 200470276
field sqrsum 2676077714324
field min 1
field max 20023
statistic Basic.rack[13].node[9].app 	"End-to-End Delay"
field count 20023
field mean 1.9434952321281e-005
field stddev 1.0709053552031e-005
field sum 0.38914605032901
field sqrsum 9.8592345379798e-006
field min 9.4416e-006
field max 0.000117877709
statistic Basic.rack[13].node[9].app 	hops
field count 20023
field mean 6.2599011137192
field stddev 0.82796114557738
field sum 125342
field sqrsum 798354
field min 5
field max 7
statistic Basic.rack[13].eps.queue[0] 	dropsum
field count 0
field mean nan
field stddev nan
field sum 0
field sqrsum 0
field min nan
field max nan
statistic Basic.rack[13].eps.queue[1] 	dropsum
field count 0
field mean nan
field stddev nan
field sum 0
field sqrsum 0
field min nan
field max nan
statistic Basic.rack[13].eps.queue[2] 	dropsum
field count 0
field mean nan
field stddev nan
field sum 0
field sqrsum 0
field min nan
field max nan
statistic Basic.rack[13].eps.queue[3] 	dropsum
field count 0
field mean nan
field stddev nan
field sum 0
field sqrsum 0
field min nan
field max nan
statistic Basic.rack[14].node[0].app 	throughput
field count 19598
field mean 9799.5
field stddev 5657.5996235153
field sum 192050601
field sqrsum 2509269135799
field min 1
field max 19598
statistic Basic.rack[14].node[0].app 	"End-to-End Delay"
field count 19598
field mean 1.9440449256149e-005
field stddev 1.0716399920817e-005
field sum 0.38099392452201
field sqrsum 9.657236587242e-006
field min 9.4416e-006
field max 0.000123446282
statistic Basic.rack[14].node[0].app 	hops
field count 19598
field mean 6.2466578222268
field stddev 0.82911676608031
field sum 122422
field sqrsum 778200
field min 5
field max 7
statistic Basic.rack[14].node[1].app 	throughput
field count 20023
field mean 10012
field stddev 5780.2865557571
field sum 200470276
field sqrsum 2676077714324
field min 1
field max 20023
statistic Basic.rack[14].node[1].app 	"End-to-End Delay"
field count 20023
field mean 1.9590061572342e-005
field stddev 1.0773876256141e-005
field sum 0.39225180286301
field sqrsum 1.0008318842612e-005
field min 9.4416e-006
field max 0.000110475126
statistic Basic.rack[14].node[1].app 	hops
field count 20023
field mean 6.2435199520551
field stddev 0.83022384745825
field sum 125014
field sqrsum 794328
field min 5
field max 7
statistic Basic.rack[14].node[2].app 	throughput
field count 19956
field mean 9978.5
field stddev 5760.9453217332
field sum 199130946
field sqrsum 2649304482566
field min 1
field max 19956
statistic Basic.rack[14].node[2].app 	"End-to-End Delay"
field count 19956
field mean 1.9599064106134e-005
field stddev 1.0839576069724e-005
field sum 0.39111892330201
field sqrsum 1.0010205699923e-005
field min 9.4416e-006
field max 0.000109577433
statistic Basic.rack[14].node[2].app 	hops
field count 19956
field mean 6.2434355582281
field stddev 0.82983064261396
field sum 124594
field sqrsum 791636
field min 5
field max 7
statistic Basic.rack[14].node[3].app 	throughput
field count 19843
field mean 9922
field stddev 5728.3250315137
field sum 196882246
field sqrsum 2604555232334
field min 1
field max 19843
statistic Basic.rack[14].node[3].app 	"End-to-End Delay"
field count 19843
field mean 1.9616861782241e-005
field stddev 1.0885043059038e-005
field sum 0.389257388345
field sqrsum 9.9869711351636e-006
field min 9.4416e-006
field max 0.000110517144
statistic Basic.rack[14].node[3].app 	hops
field count 19843
field mean 6.2534898956811
field stddev 0.82756127676683
field sum 124088
field sqrsum 789572
field min 5
field max 7
statistic Basic.rack[14].node[4].app 	throughput
field count 19933
field mean 9967
field stddev 5754.3057936355
field sum 198672211
field sqrsum 2640155011979
field min 1
field max 19933
statistic Basic.rack[14].node[4].app 	"End-to-End Delay"
field count 19933
field mean 1.9533394000903e-005
field stddev 1.0846488772883e-005
field sum 0.38935914262001
field sqrsum 9.9504319649845e-006
field min 9.4416e-006
field max 0.000112411259
statistic Basic.rack[14].node[4].app 	hops
field count 19933
field mean 6.2593688857673
field stddev 0.82636246148376
field sum 124768
field sqrsum 794580
field min 5
field max 7
statistic Basic.rack[14].node[5].app 	throughput
field count 19839
field mean 9920
field stddev 5727.170330975
field sum 196802880
field sqrsum 2602980491840
field min 1
field max 19839
statistic Basic.rack[14].node[5].app 	"End-to-End Delay"
field count 19839
field mean 1.9459557764757e-005
field stddev 1.0637880596183e-005
field sum 0.38605816649501
field sqrsum 9.7574786134589e-006
field min 9.4416e-006
field max 9.6396778e-005
statistic Basic.rack[14].node[5].app 	hops
field count 19839
field mean 6.2483996169162
field stddev 0.82706409548351
field sum 123962
field sqrsum 788134
field min 5
field max 7
statistic Basic.rack[14].node[6].app 	throughput
field count 20082
field mean 10041.5
field stddev 5797.3183887035
field sum 201653403
field sqrsum 2699802977165
field min 1
field max 20082
statistic Basic.rack[14].node[6].app 	"End-to-End Delay"
field count 20082
field mean 1.9524095120855e-005
field stddev 1.0741405799472e-005
field sum 0.39208287821701
field sqrsum 9.9719649822286e-006
field min 9.4416e-006
field max 0.000105627172
statistic Basic.rack[14].node[6].app 	hops
field count 20082
field mean 6.2524150980978
field stddev 0.82891053080618
field sum 125561
field sqrsum 798857
field min 5
field max 7
statistic Basic.rack[14].node[7].app 	throughput
field count 19886
field mean 9943.5
field stddev 5740.7380623052
field sum 197736441
field sqrsum 2621523822631
field min 1
field max 19886
statistic Basic.rack[14].node[7].app 	"End-to-End Delay"
field count 19886
field mean 1.9507697490697e-005
field stddev 1.0786533143384e-005
field sum 0.38793007230001
field sqrsum 9.8812282738554e-006
field min 9.4416e-006
field max 0.000101025673
statistic Basic.rack[14].node[7].app 	hops
field count 19886
field mean 6.25349492105
field stddev 0.82982898720179
field sum 124357
field sqrsum 791359
field min 5
field max 7
statistic Basic.rack[14].node[8].app 	throughput
field count 19814
field mean 9907.5
field stddev 5719.9534526078
field sum 196307205
field sqrsum 2593152742315
field min 1
field max 19814
statistic Basic.rack[14].node[8].app 	"End-to-End Delay"
field count 19814
field mean 1.964175442364e-005
field stddev 1.0881384855988e-005
field sum 0.38918172215001
field sqrsum 9.9901608920183e-006
field min 9.4416e-006
field max 0.000121932397
statistic Basic.rack[14].node[8].app 	hops
field count 19814
field mean 6.2426567073786
field stddev 0.83225087912992
field sum 123692
field sqrsum 785890
field min 5
field max 7
statistic Basic.rack[14].node[9].app 	throughput
field count 19943
field mean 9972
field stddev 5757.1925449823
field sum 198871596
field sqrsum 2644130449884
field min 1
field max 19943
statistic Basic.rack[14].node[9].app 	"End-to-End Delay"
field count 19943
field mean 1.9581471608635e-005
field stddev 1.0686140326748e-005
field sum 0.39051328829101
field sqrsum 9.9240735406094e-006
field min 9.4416e-006
field max 0.000120776944
statistic Basic.rack[14].node[9].app 	hops
field count 19943
field mean 6.260743117886
field stddev 0.82903555969055
field sum 124858
field sqrsum 795410
field min 5
field max 7
statistic Basic.rack[14].eps.queue[0] 	dropsum
field count 0
field mean nan
field stddev nan
field sum 0
field sqrsum 0
field min nan
field max nan
statistic Basic.rack[14].eps.queue[1] 	dropsum
field count 0
field mean nan
field stddev nan
field sum 0
field sqrsum 0
field min nan
field max nan
statistic Basic.rack[14].eps.queue[2] 	dropsum
field count 0
field mean nan
field stddev nan
field sum 0
field sqrsum 0
field min nan
field max nan
statistic Basic.rack[14].eps.queue[3] 	dropsum
field count 0
field mean nan
field stddev nan
field sum 0
field sqrsum 0
field min nan
field max nan
statistic Basic.rack[15].node[0].app 	throughput
field count 19976
field mean 9988.5
field stddev 5766.7188244269
field sum 199530276
field sqrsum 2657277705676
field min 1
field max 19976
statistic Basic.rack[15].node[0].app 	"End-to-End Delay"
field count 19976
field mean 1.6689511141269e-005
field stddev 8.5690247591315e-006
field sum 0.33338967455799
field sqrsum 7.0308386897387e-006
field min 8.992e-006
field max 0.000105806291
statistic Basic.rack[15].node[0].app 	hops
field count 19976
field mean 4.2539547456948
field stddev 0.82600680251543
field sum 84977
field sqrsum 375117
field min 3
field max 5
statistic Basic.rack[15].node[1].app 	throughput
field count 19962
field mean 9981.5
field stddev 5762.6773725413
field sum 199250703
field sqrsum 2651694772425
field min 1
field max 19962
statistic Basic.rack[15].node[1].app 	"End-to-End Delay"
field count 19962
field mean 1.6810171746468e-005
field stddev 8.5449153954438e-006
field sum 0.33556464840299
field sqrsum 7.0983633464176e-006
field min 8.992e-006
field max 0.000107086768
statistic Basic.rack[15].node[1].app 	hops
field count 19962
field mean 4.2503256186755
field stddev 0.83159766461416
field sum 84845
field sqrsum 374423
field min 3
field max 5
statistic Basic.rack[15].node[2].app 	throughput
field count 19893
field mean 9947
field stddev 5742.758788248
field sum 197875671
field sqrsum 2624293107359
field min 1
field max 19893
statistic Basic.rack[15].node[2].app 	"End-to-End Delay"
field count 19893
field mean 1.6809046328306e-005
field stddev 8.6253929146414e-006
field sum 0.33438235860899
field sqrsum 7.1005616963489e-006
field min 8.992e-006
field max 8.7401998e-005
statistic Basic.rack[15].node[2].app 	hops
field count 19893
field mean 4.2500879706429
field stddev 0.8301578720958
field sum 84547
field sqrsum 373041
field min 3
field max 5
statistic Basic.rack[15].node[3].app 	throughput
field count 20134
field mean 10067.5
field stddev 5812.3294957071
field sum 202699045
field sqrsum 2720829281035
field min 1
field max 20134
statistic Basic.rack[15].node[3].app 	"End-to-End Delay"
field count 20134
field mean 1.68512844999e-005
field stddev 8.5810358915476e-006
field sum 0.33928376212099
field sqrsum 7.199844086675e-006
field min 8.992e-006
field max 8.0870968e-005
statistic Basic.rack[15].node[3].app 	hops
field count 20134
field mean 4.2713320750969
field stddev 0.82390623303851
field sum 85999
field sqrsum 380997
field min 3
field max 5
statistic Basic.rack[15].node[4].app 	throughput
field count 19978
field mean 9989.5
field stddev 5767.2961746963
field sum 199570231
field sqrsum 2658075906689
field min 1
field max 19978
statistic Basic.rack[15].node[4].app 	"End-to-End Delay"
field count 19978
field mean 1.6805140076834e-005
field stddev 8.6113524736774e-006
field sum 0.33573308845499
field sqrsum 7.1234438344295e-006
field min 8.992e-006
field max 8.4673086e-005
statistic Basic.rack[15].node[4].app 	hops
field count 19978
field mean 4.2535288817699
field stddev 0.82893547083521
field sum 84977
field sqrsum 375179
field min 3
field max 5
statistic Basic.rack[15].node[5].app 	throughput
field count 20032
field mean 10016.5
field stddev 5782.8846319693
field sum 200650528
field sqrsum 2679687801440
field min 1
field max 20032
statistic Basic.rack[15].node[5].app 	"End-to-End Delay"
field count 20032
field mean 1.6776905118809e-005
field stddev 8.5000869708437e-006
field sum 0.33607496333999
field sqrsum 7.0855671388343e-006
field min 8.992e-006
field max 9.5158052e-005
statistic Basic.rack[15].node[5].app 	hops
field count 20032
field mean 4.2510982428115
field stddev 0.83113060700456
field sum 85158
field sqrsum 375852
field min 3
field max 5
statistic Basic.rack[15].node[6].app 	throughput
field count 19820
field mean 9910.5
field stddev 5721.6855034159
field sum 196426110
field sqrsum 2595509142170
field min 1
field max 19820
statistic Basic.rack[15].node[6].app 	"End-to-End Delay"
field count 19820
field mean 1.6838566091624e-005
field stddev 8.6717553227243e-006
field sum 0.33374037993599
field sqrsum 7.1100851719315e-006
field min 8.992e-006
field max 0.00010113368
statistic Basic.rack[15].node[6].app 	hops
field count 19820
field mean 4.2473259334006
field stddev 0.82958345118557
field sum 84182
field sqrsum 371188
field min 3
field max 5
statistic Basic.rack[15].node[7].app 	throughput
field count 20008
field mean 10004.5
field stddev 5775.9564287369
field sum 200170036
field sqrsum 2670068110204
field min 1
field max 20008
statistic Basic.rack[15].node[7].app 	"End-to-End Delay"
field count 20008
field mean 1.6859142842662e-005
field stddev 8.740154635273e-006
field sum 0.33731772999599
field sqrsum 7.215228586456e-006
field min 8.992e-006
field max 9.1912772e-005
statistic Basic.rack[15].node[7].app 	hops
field count 20008
field mean 4.2516493402639
field stddev 0.83111702795612
field sum 85067
field sqrsum 375495
field min 3
field max 5
statistic Basic.rack[15].node[8].app 	throughput
field count 20207
field mean 10104
field stddev 5833.402780539
field sum 204171528
field sqrsum 2750530768040
field min 1
field max 20207
statistic Basic.rack[15].node[8].app 	"End-to-End Delay"
field count 20207
field mean 1.6826762734151e-005
field stddev 8.665121707918e-006
field sum 0.34001839456899
field sqrsum 7.2385629077678e-006
field min 8.992e-006
field max 8.2430741e-005
statistic Basic.rack[15].node[8].app 	hops
field count 20207
field mean 4.247439006285
field stddev 0.83240815949011
field sum 85828
field sqrsum 378550
field min 3
field max 5
statistic Basic.rack[15].node[9].app 	throughput
field count 19768
field mean 9884.5
field stddev 5706.6743964122
field sum 195396796
field sqrsum 2575134374484
field min 1
field max 19768
statistic Basic.rack[15].node[9].app 	"End-to-End Delay"
field count 19768
field mean 1.688369379578e-005
field stddev 8.6127723498843e-006
field sum 0.33375685895499
field sqrsum 7.1013616553768e-006
field min 8.992e-006
field max 8.8428399e-005
statistic Basic.rack[15].node[9].app 	hops
field count 19768
field mean 4.2528328611898
field stddev 0.82574859713825
field sum 84070
field sqrsum 371014
field min 3
field max 5
statistic Basic.rack[15].eps.queue[0] 	dropsum
field count 0
field mean nan
field stddev nan
field sum 0
field sqrsum 0
field min nan
field max nan
statistic Basic.rack[15].eps.queue[1] 	dropsum
field count 0
field mean nan
field stddev nan
field sum 0
field sqrsum 0
field min nan
field max nan
statistic Basic.rack[15].eps.queue[2] 	dropsum
field count 0
field mean nan
field stddev nan
field sum 0
field sqrsum 0
field min nan
field max nan
statistic Basic.rack[15].eps.queue[3] 	dropsum
field count 0
field mean nan
field stddev nan
field sum 0
field sqrsum 0
field min nan
field max nan
