version 2
run Basic-44-20180510-17:36:36-24564
attr configname Basic
attr datetime 20180510-17:36:36
attr experiment Basic
attr inifile omnetpp.ini
attr iterationvars "$0=exponential(0.1 ms), $1=7, $2=2"
attr iterationvarsf exponential(0.1_ms),7,2-
attr measurement "$0=exponential(0.1 ms), $1=7, $2=2"
attr network Networks.Basic
attr processid 24564
attr repetition 0
attr replication #0
attr resultdir results
attr runnumber 44
attr seedset 44
param **.frameCapacity 50
param **.packetLength "1024 bytes"
param **.pattern 7
param **.sendIaTime "exponential(0.1 ms)"
param **.tp 2

statistic Basic.rack[0].node[0].app 	throughput
field count 99611
field mean 49806
field stddev 28755.363169329
field sum 4961225466
field sqrsum 3.2946340700431e+014
field min 1
field max 99611
statistic Basic.rack[0].node[0].app 	"End-to-End Delay"
field count 99611
field mean 1.3406078550202e-005
field stddev 1.1629257367105e-005
field sum 1.3353928904642
field sqrsum 3.1373601221487e-005
field min 4e-007
field max 0.000129164632
statistic Basic.rack[0].node[0].app 	hops
field count 99611
field mean 3.0006324602705
field stddev 0.70741877463677
field sum 298896
field sqrsum 946726
field min 2
field max 4
statistic Basic.rack[0].node[1].app 	throughput
field count 99656
field mean 49828.5
field stddev 28768.353550386
field sum 4965708996
field sqrsum 3.2991011903992e+014
field min 1
field max 99656
statistic Basic.rack[0].node[1].app 	"End-to-End Delay"
field count 99656
field mean 1.3420218785584e-005
field stddev 1.1624710060678e-005
field sum 1.3374053232962
field sqrsum 3.1415039253144e-005
field min 4e-007
field max 0.000117450293
statistic Basic.rack[0].node[1].app 	hops
field count 99656
field mean 3.0012743838805
field stddev 0.7064063744863
field sum 299095
field sqrsum 947395
field min 2
field max 4
statistic Basic.rack[0].node[2].app 	throughput
field count 99864
field mean 49932.5
field stddev 28828.397978382
field sum 4986459180
field sqrsum 3.3198016852074e+014
field min 1
field max 99864
statistic Basic.rack[0].node[2].app 	"End-to-End Delay"
field count 99864
field mean 1.3391003511968e-005
field stddev 1.1615763022328e-005
field sum 1.3372791747192
field sqrsum 3.1381620329004e-005
field min 4e-007
field max 0.000130599594
statistic Basic.rack[0].node[2].app 	hops
field count 99864
field mean 3.0005607626372
field stddev 0.70733664644421
field sum 299648
field sqrsum 949076
field min 2
field max 4
statistic Basic.rack[0].node[3].app 	throughput
field count 99657
field mean 49829
field stddev 28768.64222552
field sum 4965808653
field sqrsum 3.2992005055756e+014
field min 1
field max 99657
statistic Basic.rack[0].node[3].app 	"End-to-End Delay"
field count 99657
field mean 1.3412343908337e-005
field stddev 1.1622729571e-005
field sum 1.3366339568732
field sqrsum 3.1389708359322e-005
field min 4e-007
field max 0.000104193322
statistic Basic.rack[0].node[3].app 	hops
field count 99657
field mean 2.9984346307836
field stddev 0.70629569902255
field sum 298815
field sqrsum 945691
field min 2
field max 4
statistic Basic.rack[0].node[4].app 	throughput
field count 99583
field mean 49792
field stddev 28747.28026556
field sum 4958436736
field sqrsum 3.291856564663e+014
field min 1
field max 99583
statistic Basic.rack[0].node[4].app 	"End-to-End Delay"
field count 99583
field mean 1.3392565274085e-005
field stddev 1.1542799734349e-005
field sum 1.3336718276892
field sqrsum 3.1129216834918e-005
field min 4e-007
field max 0.000103782307
statistic Basic.rack[0].node[4].app 	hops
field count 99583
field mean 2.99986945563
field stddev 0.70629681986814
field sum 298736
field sqrsum 945846
field min 2
field max 4
statistic Basic.rack[0].node[5].app 	throughput
field count 99592
field mean 49796.5
field stddev 28749.878341772
field sum 4959333028
field sqrsum 3.2927491639406e+014
field min 1
field max 99592
statistic Basic.rack[0].node[5].app 	"End-to-End Delay"
field count 99592
field mean 1.3397723062206e-005
field stddev 1.1579985045856e-005
field sum 1.3343060352112
field sqrsum 3.1231422820266e-005
field min 4e-007
field max 0.000106154925
statistic Basic.rack[0].node[5].app 	hops
field count 99592
field mean 3.0006124989959
field stddev 0.70747207707553
field sum 298837
field sqrsum 946541
field min 2
field max 4
statistic Basic.rack[0].node[6].app 	throughput
field count 99701
field mean 49851
field stddev 28781.343931443
field sum 4970194551
field sqrsum 3.3035723468435e+014
field min 1
field max 99701
statistic Basic.rack[0].node[6].app 	"End-to-End Delay"
field count 99701
field mean 1.3358889218535e-005
field stddev 1.1598069905714e-005
field sum 1.3318946139772
field sqrsum 3.1203800585007e-005
field min 4e-007
field max 0.00013112844
statistic Basic.rack[0].node[6].app 	hops
field count 99701
field mean 2.9974022326757
field stddev 0.70916289229348
field sum 298844
field sqrsum 945896
field min 2
field max 4
statistic Basic.rack[0].node[7].app 	throughput
field count 99753
field mean 49877
field stddev 28796.355038442
field sum 4975380381
field sqrsum 3.3087440455739e+014
field min 1
field max 99753
statistic Basic.rack[0].node[7].app 	"End-to-End Delay"
field count 99753
field mean 1.337386960663e-005
field stddev 1.1594614323167e-005
field sum 1.3340836148702
field sqrsum 3.1252028539752e-005
field min 4e-007
field max 0.000131850239
statistic Basic.rack[0].node[7].app 	hops
field count 99753
field mean 2.9998195542991
field stddev 0.70685152077319
field sum 299241
field sqrsum 947509
field min 2
field max 4
statistic Basic.rack[0].node[8].app 	throughput
field count 100194
field mean 50097.5
field stddev 28923.6607728
field sum 5019468915
field sqrsum 3.3528211880264e+014
field min 1
field max 100194
statistic Basic.rack[0].node[8].app 	"End-to-End Delay"
field count 100194
field mean 1.3490026108781e-005
field stddev 1.165829832382e-005
field sum 1.3516196759432
field sqrsum 3.1851208470857e-005
field min 4e-007
field max 0.000111067555
statistic Basic.rack[0].node[8].app 	hops
field count 100194
field mean 3.0037327584486
field stddev 0.7058784521518
field sum 300956
field sqrsum 953914
field min 2
field max 4
statistic Basic.rack[0].node[9].app 	throughput
field count 100050
field mean 50025.5
field stddev 28882.091553418
field sum 5005051275
field sqrsum 3.3383858839292e+014
field min 1
field max 100050
statistic Basic.rack[0].node[9].app 	"End-to-End Delay"
field count 100050
field mean 1.3405888296034e-005
field stddev 1.1588853398252e-005
field sum 1.3412591240182
field sqrsum 3.1417503075873e-005
field min 4e-007
field max 0.000117806313
statistic Basic.rack[0].node[9].app 	hops
field count 100050
field mean 2.9992103948026
field stddev 0.70651594848737
field sum 300071
field sqrsum 949917
field min 2
field max 4
statistic Basic.rack[0].eps.queue[0] 	dropsum
field count 0
field mean nan
field stddev nan
field sum 0
field sqrsum 0
field min nan
field max nan
statistic Basic.rack[0].eps.queue[1] 	dropsum
field count 0
field mean nan
field stddev nan
field sum 0
field sqrsum 0
field min nan
field max nan
statistic Basic.rack[0].eps.queue[2] 	dropsum
field count 0
field mean nan
field stddev nan
field sum 0
field sqrsum 0
field min nan
field max nan
statistic Basic.rack[0].eps.queue[3] 	dropsum
field count 0
field mean nan
field stddev nan
field sum 0
field sqrsum 0
field min nan
field max nan
statistic Basic.rack[1].node[0].app 	throughput
field count 99889
field mean 49945
field stddev 28835.614856747
field sum 4988956105
field sqrsum 3.3222955390026e+014
field min 1
field max 99889
statistic Basic.rack[1].node[0].app 	"End-to-End Delay"
field count 99889
field mean 1.3451117207973e-005
field stddev 1.1658578732973e-005
field sum 1.3436186467872
field sqrsum 3.1650194392742e-005
field min 4e-007
field max 0.000109745118
statistic Basic.rack[1].node[0].app 	hops
field count 99889
field mean 3.0005906556277
field stddev 0.70709945545862
field sum 299726
field sqrsum 949298
field min 2
field max 4
statistic Basic.rack[1].node[1].app 	throughput
field count 99555
field mean 49778
field stddev 28739.197361791
field sum 4955648790
field sqrsum 3.2890806207523e+014
field min 1
field max 99555
statistic Basic.rack[1].node[1].app 	"End-to-End Delay"
field count 99555
field mean 1.3336331548061e-005
field stddev 1.1615917055819e-005
field sum 1.3276984872672
field sqrsum 3.1139401556866e-005
field min 4e-007
field max 0.000127947936
statistic Basic.rack[1].node[1].app 	hops
field count 99555
field mean 2.9950379187384
field stddev 0.70715329363618
field sum 298171
field sqrsum 942817
field min 2
field max 4
statistic Basic.rack[1].node[2].app 	throughput
field count 100028
field mean 50014.5
field stddev 28875.740700456
field sum 5002850406
field sqrsum 3.3361841455771e+014
field min 1
field max 100028
statistic Basic.rack[1].node[2].app 	"End-to-End Delay"
field count 100028
field mean 1.3441266264368e-005
field stddev 1.1623843564866e-005
field sum 1.3445029818922
field sqrsum 3.1586844565857e-005
field min 4e-007
field max 0.000111282777
statistic Basic.rack[1].node[2].app 	hops
field count 100028
field mean 3.0016795297317
field stddev 0.70763124440345
field sum 300252
field sqrsum 951348
field min 2
field max 4
statistic Basic.rack[1].node[3].app 	throughput
field count 100212
field mean 50106.5
field stddev 28928.856925223
field sum 5021272578
field sqrsum 3.3546285214855e+014
field min 1
field max 100212
statistic Basic.rack[1].node[3].app 	"End-to-End Delay"
field count 100212
field mean 1.3396810421069e-005
field stddev 1.1542188691755e-005
field sum 1.3425211659162
field sqrsum 3.1335823392937e-005
field min 4e-007
field max 0.000100618053
statistic Basic.rack[1].node[3].app 	hops
field count 100212
field mean 3.0008282441225
field stddev 0.70567597221268
field sum 300719
field sqrsum 952309
field min 2
field max 4
statistic Basic.rack[1].node[4].app 	throughput
field count 99659
field mean 49830
field stddev 28769.21957579
field sum 4966007970
field sqrsum 3.2993991419081e+014
field min 1
field max 99659
statistic Basic.rack[1].node[4].app 	"End-to-End Delay"
field count 99659
field mean 1.3389983633382e-005
field stddev 1.1604624420104e-005
field sum 1.3344323789192
field sqrsum 3.1288702287438e-005
field min 4e-007
field max 0.000113243417
statistic Basic.rack[1].node[4].app 	hops
field count 99659
field mean 2.9975215484803
field stddev 0.70730108023575
field sum 298730
field sqrsum 945306
field min 2
field max 4
statistic Basic.rack[1].node[5].app 	throughput
field count 100147
field mean 50074
field stddev 28910.093041474
field sum 5014760878
field sqrsum 3.3481051001967e+014
field min 1
field max 100147
statistic Basic.rack[1].node[5].app 	"End-to-End Delay"
field count 100147
field mean 1.34175467769e-005
field stddev 1.1626006739336e-005
field sum 1.3437270570662
field sqrsum 3.1565657862655e-005
field min 4e-007
field max 0.000110493511
statistic Basic.rack[1].node[5].app 	hops
field count 100147
field mean 3.0017274606329
field stddev 0.70724587257591
field sum 300614
field sqrsum 952454
field min 2
field max 4
statistic Basic.rack[1].node[6].app 	throughput
field count 99792
field mean 49896.5
field stddev 28807.613368691
field sum 4979271528
field sqrsum 3.3126263597196e+014
field min 1
field max 99792
statistic Basic.rack[1].node[6].app 	"End-to-End Delay"
field count 99792
field mean 1.3470113690248e-005
field stddev 1.1640828517967e-005
field sum 1.3442095853772
field sqrsum 3.1629223439309e-005
field min 4e-007
field max 0.000119063271
statistic Basic.rack[1].node[6].app 	hops
field count 99792
field mean 3.0026555234889
field stddev 0.70664460462881
field sum 299641
field sqrsum 949549
field min 2
field max 4
statistic Basic.rack[1].node[7].app 	throughput
field count 99924
field mean 49962.5
field stddev 28845.718486458
field sum 4992452850
field sqrsum 3.3257890320655e+014
field min 1
field max 99924
statistic Basic.rack[1].node[7].app 	"End-to-End Delay"
field count 99924
field mean 1.3427026701075e-005
field stddev 1.1622867225219e-005
field sum 1.3416822160782
field sqrsum 3.1513505182871e-005
field min 4e-007
field max 0.00010788614
statistic Basic.rack[1].node[7].app 	hops
field count 99924
field mean 3.0009607301549
field stddev 0.70928587626488
field sum 299868
field sqrsum 950162
field min 2
field max 4
statistic Basic.rack[1].node[8].app 	throughput
field count 99805
field mean 49903
field stddev 28811.366145441
field sum 4980568915
field sqrsum 3.3139211389736e+014
field min 1
field max 99805
statistic Basic.rack[1].node[8].app 	"End-to-End Delay"
field count 99805
field mean 1.3446445929725e-005
field stddev 1.161268596757e-005
field sum 1.3420225360162
field sqrsum 3.1504449527979e-005
field min 4e-007
field max 0.000119826457
statistic Basic.rack[1].node[8].app 	hops
field count 99805
field mean 3.0026952557487
field stddev 0.70657006916286
field sum 299684
field sqrsum 949686
field min 2
field max 4
statistic Basic.rack[1].node[9].app 	throughput
field count 100430
field mean 50215.5
field stddev 28991.788104565
field sum 5043142665
field sqrsum 3.3765689294486e+014
field min 1
field max 100430
statistic Basic.rack[1].node[9].app 	"End-to-End Delay"
field count 100430
field mean 1.340405789821e-005
field stddev 1.1563049096941e-005
field sum 1.3461695347172
field sqrsum 3.1471903886778e-005
field min 4e-007
field max 0.000111082915
statistic Basic.rack[1].node[9].app 	hops
field count 100430
field mean 3.0012944339341
field stddev 0.70583357443282
field sum 301420
field sqrsum 954684
field min 2
field max 4
statistic Basic.rack[1].eps.queue[0] 	dropsum
field count 0
field mean nan
field stddev nan
field sum 0
field sqrsum 0
field min nan
field max nan
statistic Basic.rack[1].eps.queue[1] 	dropsum
field count 0
field mean nan
field stddev nan
field sum 0
field sqrsum 0
field min nan
field max nan
statistic Basic.rack[1].eps.queue[2] 	dropsum
field count 0
field mean nan
field stddev nan
field sum 0
field sqrsum 0
field min nan
field max nan
statistic Basic.rack[1].eps.queue[3] 	dropsum
field count 0
field mean nan
field stddev nan
field sum 0
field sqrsum 0
field min nan
field max nan
statistic Basic.rack[2].node[0].app 	throughput
field count 100316
field mean 50158.5
field stddev 28958.879139221
field sum 5031700086
field sqrsum 3.3650836111815e+014
field min 1
field max 100316
statistic Basic.rack[2].node[0].app 	"End-to-End Delay"
field count 100316
field mean 9.6085447575933e-006
field stddev 1.1584724420132e-005
field sum 0.96389077590273
field sqrsum 2.2724446490298e-005
field min 4e-007
field max 0.000115356717
statistic Basic.rack[2].node[0].app 	hops
field count 100316
field mean 3.2519936999083
field stddev 0.82818353371027
field sum 326227
field sqrsum 1129693
field min 2
field max 4
statistic Basic.rack[2].node[1].app 	throughput
field count 100210
field mean 50105.5
field stddev 28928.279574953
field sum 5021072155
field sqrsum 3.3544276745908e+014
field min 1
field max 100210
statistic Basic.rack[2].node[1].app 	"End-to-End Delay"
field count 100210
field mean 9.6078930267709e-006
field stddev 1.1557056860387e-005
field sum 0.96280696021271
field sqrsum 2.2635017809301e-005
field min 4e-007
field max 0.000102885867
statistic Basic.rack[2].node[1].app 	hops
field count 100210
field mean 3.2537970262449
field stddev 0.82747251122521
field sum 326063
field sqrsum 1129557
field min 2
field max 4
statistic Basic.rack[2].node[2].app 	throughput
field count 100135
field mean 50068
field stddev 28906.628939859
field sum 5013559180
field sqrsum 3.3469017017926e+014
field min 1
field max 100135
statistic Basic.rack[2].node[2].app 	"End-to-End Delay"
field count 100135
field mean 9.5950582221073e-006
field stddev 1.1573402906592e-005
field sum 0.96080115507072
field sqrsum 2.2631256956351e-005
field min 4e-007
field max 0.000112320238
statistic Basic.rack[2].node[2].app 	hops
field count 100135
field mean 3.2461776601588
field stddev 0.82995284437386
field sum 325056
field sqrsum 1124164
field min 2
field max 4
statistic Basic.rack[2].node[3].app 	throughput
field count 100239
field mean 50120
field stddev 28936.651153857
field sum 5023978680
field sqrsum 3.3573407392924e+014
field min 1
field max 100239
statistic Basic.rack[2].node[3].app 	"End-to-End Delay"
field count 100239
field mean 9.6274314706024e-006
field stddev 1.1592744586835e-005
field sum 0.96504410318171
field sqrsum 2.276205390609e-005
field min 4e-007
field max 0.000106140314
statistic Basic.rack[2].node[3].app 	hops
field count 100239
field mean 3.2513193467612
field stddev 0.8303653439573
field sum 325909
field sqrsum 1128749
field min 2
field max 4
statistic Basic.rack[2].node[4].app 	throughput
field count 99655
field mean 49828
field stddev 28768.064875251
field sum 4965609340
field sqrsum 3.2990018772158e+014
field min 1
field max 99655
statistic Basic.rack[2].node[4].app 	"End-to-End Delay"
field count 99655
field mean 9.6279978860238e-006
field stddev 1.1582489196828e-005
field sum 0.9594781293317
field sqrsum 2.2606841696982e-005
field min 4e-007
field max 0.000115043656
statistic Basic.rack[2].node[4].app 	hops
field count 99655
field mean 3.2493903968692
field stddev 0.82976578237691
field sum 323818
field sqrsum 1120824
field min 2
field max 4
statistic Basic.rack[2].node[5].app 	throughput
field count 100555
field mean 50278
field stddev 29027.87249639
field sum 5055704290
field sqrsum 3.3891924848873e+014
field min 1
field max 100555
statistic Basic.rack[2].node[5].app 	"End-to-End Delay"
field count 100555
field mean 9.6496966539477e-006
field stddev 1.1574895964809e-005
field sum 0.97032524703771
field sqrsum 2.2835389881191e-005
field min 4e-007
field max 0.00010957677
statistic Basic.rack[2].node[5].app 	hops
field count 100555
field mean 3.2502709959724
field stddev 0.82884912482565
field sum 326831
field sqrsum 1131369
field min 2
field max 4
statistic Basic.rack[2].node[6].app 	throughput
field count 100160
field mean 50080.5
field stddev 28913.845818223
field sum 5016062880
field sqrsum 3.3494091072816e+014
field min 1
field max 100160
statistic Basic.rack[2].node[6].app 	"End-to-End Delay"
field count 100160
field mean 9.6162122108198e-006
field stddev 1.1574932982505e-005
field sum 0.96315981503571
field sqrsum 2.2681159201959e-005
field min 4e-007
field max 0.000117849681
statistic Basic.rack[2].node[6].app 	hops
field count 100160
field mean 3.2499600638978
field stddev 0.83001482412991
field sum 325516
field sqrsum 1126916
field min 2
field max 4
statistic Basic.rack[2].node[7].app 	throughput
field count 100358
field mean 50179.5
field stddev 28971.003494874
field sum 5035914261
field sqrsum 3.3693120090838e+014
field min 1
field max 100358
statistic Basic.rack[2].node[7].app 	"End-to-End Delay"
field count 100358
field mean 9.5857078152785e-006
field stddev 1.1552150613901e-005
field sum 0.96200246492572
field sqrsum 2.26143353566e-005
field min 4e-007
field max 0.000108564352
statistic Basic.rack[2].node[7].app 	hops
field count 100358
field mean 3.249795731282
field stddev 0.82920086149235
field sum 326143
field sqrsum 1128901
field min 2
field max 4
statistic Basic.rack[2].node[8].app 	throughput
field count 100052
field mean 50026.5
field stddev 28882.668903687
field sum 5005251378
field sqrsum 3.3385860899823e+014
field min 1
field max 100052
statistic Basic.rack[2].node[8].app 	"End-to-End Delay"
field count 100052
field mean 9.5706553409998e-006
field stddev 1.1505007052315e-005
field sum 0.95756320817771
field sqrsum 2.2407776784624e-005
field min 4e-007
field max 0.00010985153
statistic Basic.rack[2].node[8].app 	hops
field count 100052
field mean 3.2468616319514
field stddev 0.82972678502629
field sum 324855
field sqrsum 1123639
field min 2
field max 4
statistic Basic.rack[2].node[9].app 	throughput
field count 99685
field mean 49843
field stddev 28776.725129289
field sum 4968599455
field sqrsum 3.3019821398094e+014
field min 1
field max 99685
statistic Basic.rack[2].node[9].app 	"End-to-End Delay"
field count 99685
field mean 9.6715016720039e-006
field stddev 1.1601280765159e-005
field sum 0.9641036441737
field sqrsum 2.2740771195753e-005
field min 4e-007
field max 0.000110342501
statistic Basic.rack[2].node[9].app 	hops
field count 99685
field mean 3.2500777448964
field stddev 0.82868458916736
field sum 323984
field sqrsum 1121428
field min 2
field max 4
statistic Basic.rack[2].eps.queue[0] 	dropsum
field count 0
field mean nan
field stddev nan
field sum 0
field sqrsum 0
field min nan
field max nan
statistic Basic.rack[2].eps.queue[1] 	dropsum
field count 0
field mean nan
field stddev nan
field sum 0
field sqrsum 0
field min nan
field max nan
statistic Basic.rack[2].eps.queue[2] 	dropsum
field count 0
field mean nan
field stddev nan
field sum 0
field sqrsum 0
field min nan
field max nan
statistic Basic.rack[2].eps.queue[3] 	dropsum
field count 0
field mean nan
field stddev nan
field sum 0
field sqrsum 0
field min nan
field max nan
statistic Basic.rack[3].node[0].app 	throughput
field count 100161
field mean 50081
field stddev 28914.134493358
field sum 5016163041
field sqrsum 3.3495094295408e+014
field min 1
field max 100161
statistic Basic.rack[3].node[0].app 	"End-to-End Delay"
field count 100161
field mean 9.640785337334e-006
field stddev 1.1596615142179e-005
field sum 0.96563070017271
field sqrsum 2.2779103608326e-005
field min 4e-007
field max 0.000117173461
statistic Basic.rack[3].node[0].app 	hops
field count 100161
field mean 3.2476912171404
field stddev 0.82940919608861
field sum 325292
field sqrsum 1125350
field min 2
field max 4
statistic Basic.rack[3].node[1].app 	throughput
field count 100441
field mean 50221
field stddev 28994.963531046
field sum 5044247461
field sqrsum 3.3776785423602e+014
field min 1
field max 100441
statistic Basic.rack[3].node[1].app 	"End-to-End Delay"
field count 100441
field mean 9.5953536676727e-006
field stddev 1.153679077759e-005
field sum 0.96376691773471
field sqrsum 2.2616001491692e-005
field min 4e-007
field max 0.000133698043
statistic Basic.rack[3].node[1].app 	hops
field count 100441
field mean 3.251560617676
field stddev 0.8291460983573
field sum 326590
field sqrsum 1130978
field min 2
field max 4
statistic Basic.rack[3].node[2].app 	throughput
field count 99570
field mean 49785.5
field stddev 28743.52748881
field sum 4957142235
field sqrsum 3.2905675394004e+014
field min 1
field max 99570
statistic Basic.rack[3].node[2].app 	"End-to-End Delay"
field count 99570
field mean 9.6203816867602e-006
field stddev 1.1555027856571e-005
field sum 0.95790140455071
field sqrsum 2.2509697460437e-005
field min 4e-007
field max 0.000106955414
statistic Basic.rack[3].node[2].app 	hops
field count 99570
field mean 3.2503163603495
field stddev 0.82975814501753
field sum 323634
field sqrsum 1120466
field min 2
field max 4
statistic Basic.rack[3].node[3].app 	throughput
field count 100071
field mean 50036
field stddev 28888.153731244
field sum 5007152556
field sqrsum 3.3404884467184e+014
field min 1
field max 100071
statistic Basic.rack[3].node[3].app 	"End-to-End Delay"
field count 100071
field mean 9.6352905150715e-006
field stddev 1.1596052942512e-005
field sum 0.96421315713372
field sqrsum 2.274673106306e-005
field min 4e-007
field max 0.000124336136
statistic Basic.rack[3].node[3].app 	hops
field count 100071
field mean 3.250741973199
field stddev 0.82980830124381
field sum 325305
field sqrsum 1126389
field min 2
field max 4
statistic Basic.rack[3].node[4].app 	throughput
field count 99555
field mean 49778
field stddev 28739.197361791
field sum 4955648790
field sqrsum 3.2890806207523e+014
field min 1
field max 99555
statistic Basic.rack[3].node[4].app 	"End-to-End Delay"
field count 99555
field mean 9.6007978178264e-006
field stddev 1.157235366978e-005
field sum 0.9558074267537
field sqrsum 2.2508722764109e-005
field min 4e-007
field max 0.000133451554
statistic Basic.rack[3].node[4].app 	hops
field count 99555
field mean 3.2502234945508
field stddev 0.82938820310051
field sum 323576
field sqrsum 1120176
field min 2
field max 4
statistic Basic.rack[3].node[5].app 	throughput
field count 100126
field mean 50063.5
field stddev 28904.030863647
field sum 5012658001
field sqrsum 3.3459993422475e+014
field min 1
field max 100126
statistic Basic.rack[3].node[5].app 	"End-to-End Delay"
field count 100126
field mean 9.6007055557868e-006
field stddev 1.1574136572636e-005
field sum 0.96128024447871
field sqrsum 2.2641777403713e-005
field min 4e-007
field max 0.000133214256
statistic Basic.rack[3].node[5].app 	hops
field count 100126
field mean 3.2514831312546
field stddev 0.82941945164472
field sum 325558
field sqrsum 1127426
field min 2
field max 4
statistic Basic.rack[3].node[6].app 	throughput
field count 99747
field mean 49874
field stddev 28794.622987634
field sum 4974781878
field sqrsum 3.3081470358387e+014
field min 1
field max 99747
statistic Basic.rack[3].node[6].app 	"End-to-End Delay"
field count 99747
field mean 9.6151850744854e-006
field stddev 1.1597809438851e-005
field sum 0.95908586562469
field sqrsum 2.2638541145614e-005
field min 4e-007
field max 0.00012554379
statistic Basic.rack[3].node[6].app 	hops
field count 99747
field mean 3.2493308069416
field stddev 0.82951745025789
field sum 324111
field sqrsum 1121779
field min 2
field max 4
statistic Basic.rack[3].node[7].app 	throughput
field count 100306
field mean 50153.5
field stddev 28955.992387875
field sum 5030696971
field sqrsum 3.3640773714774e+014
field min 1
field max 100306
statistic Basic.rack[3].node[7].app 	"End-to-End Delay"
field count 100306
field mean 9.6166100117014e-006
field stddev 1.158114061983e-005
field sum 0.96460368383372
field sqrsum 2.2729406708413e-005
field min 4e-007
field max 0.000113319706
statistic Basic.rack[3].node[7].app 	hops
field count 100306
field mean 3.2475325503958
field stddev 0.83005344854625
field sum 325747
field sqrsum 1126983
field min 2
field max 4
statistic Basic.rack[3].node[8].app 	throughput
field count 100124
field mean 50062.5
field stddev 28903.453513378
field sum 5012457750
field sqrsum 3.3457988399325e+014
field min 1
field max 100124
statistic Basic.rack[3].node[8].app 	"End-to-End Delay"
field count 100124
field mean 9.6632692052026e-006
field stddev 1.1583611835426e-005
field sum 0.96752516590171
field sqrsum 2.2783966604067e-005
field min 4e-007
field max 0.000137528606
statistic Basic.rack[3].node[8].app 	hops
field count 100124
field mean 3.25
field stddev 0.82902782632533
field sum 325403
field sqrsum 1126373
field min 2
field max 4
statistic Basic.rack[3].node[9].app 	throughput
field count 100204
field mean 50102.5
field stddev 28926.547524146
field sum 5020470910
field sqrsum 3.3538251820073e+014
field min 1
field max 100204
statistic Basic.rack[3].node[9].app 	"End-to-End Delay"
field count 100204
field mean 9.6769445488674e-006
field stddev 1.1657069872878e-005
field sum 0.96966855157471
field sqrsum 2.2999741723923e-005
field min 4e-007
field max 0.00011030609
statistic Basic.rack[3].node[9].app 	hops
field count 100204
field mean 3.2498702646601
field stddev 0.83019176690908
field sum 325650
field sqrsum 1127382
field min 2
field max 4
statistic Basic.rack[3].eps.queue[0] 	dropsum
field count 0
field mean nan
field stddev nan
field sum 0
field sqrsum 0
field min nan
field max nan
statistic Basic.rack[3].eps.queue[1] 	dropsum
field count 0
field mean nan
field stddev nan
field sum 0
field sqrsum 0
field min nan
field max nan
statistic Basic.rack[3].eps.queue[2] 	dropsum
field count 0
field mean nan
field stddev nan
field sum 0
field sqrsum 0
field min nan
field max nan
statistic Basic.rack[3].eps.queue[3] 	dropsum
field count 0
field mean nan
field stddev nan
field sum 0
field sqrsum 0
field min nan
field max nan
statistic Basic.rack[4].node[0].app 	throughput
field count 100116
field mean 50058.5
field stddev 28901.144112301
field sum 5011656786
field sqrsum 3.3449969107705e+014
field min 1
field max 100116
statistic Basic.rack[4].node[0].app 	"End-to-End Delay"
field count 100116
field mean 1.3381775719238e-005
field stddev 1.1696388719814e-005
field sum 1.3397298579072
field sqrsum 3.1624248024925e-005
field min 4e-007
field max 0.00012655007
statistic Basic.rack[4].node[0].app 	hops
field count 100116
field mean 2.9982120739942
field stddev 0.70975171010639
field sum 300169
field sqrsum 950403
field min 2
field max 4
statistic Basic.rack[4].node[1].app 	throughput
field count 99770
field mean 49885.5
field stddev 28801.26251573
field sum 4977076335
field sqrsum 3.3104359632074e+014
field min 1
field max 99770
statistic Basic.rack[4].node[1].app 	"End-to-End Delay"
field count 99770
field mean 1.3477775356612e-005
field stddev 1.1701794893314e-005
field sum 1.3446776473292
field sqrsum 3.1784832337419e-005
field min 4e-007
field max 0.000131059218
statistic Basic.rack[4].node[1].app 	hops
field count 99770
field mean 3.0028365240052
field stddev 0.70803956237461
field sum 299593
field sqrsum 949645
field min 2
field max 4
statistic Basic.rack[4].node[2].app 	throughput
field count 100119
field mean 50060
field stddev 28902.010137705
field sum 5011957140
field sqrsum 3.3452976191882e+014
field min 1
field max 100119
statistic Basic.rack[4].node[2].app 	"End-to-End Delay"
field count 100119
field mean 1.3448408796994e-005
field stddev 1.1667675473201e-005
field sum 1.3464412403462
field sqrsum 3.1737021204912e-005
field min 4e-007
field max 0.000123186033
statistic Basic.rack[4].node[2].app 	hops
field count 100119
field mean 3.0000299643424
field stddev 0.70744571054583
field sum 300360
field sqrsum 951196
field min 2
field max 4
statistic Basic.rack[4].node[3].app 	throughput
field count 100386
field mean 50193.5
field stddev 28979.086398643
field sum 5038724691
field sqrsum 3.3721329079538e+014
field min 1
field max 100386
statistic Basic.rack[4].node[3].app 	"End-to-End Delay"
field count 100386
field mean 1.3443039845379e-005
field stddev 1.1659346037498e-005
field sum 1.3494929979182
field sqrsum 3.1787660179045e-005
field min 4e-007
field max 0.000115149727
statistic Basic.rack[4].node[3].app 	hops
field count 100386
field mean 3.000328731098
field stddev 0.70756089364
field sum 301191
field sqrsum 953929
field min 2
field max 4
statistic Basic.rack[4].node[4].app 	throughput
field count 100313
field mean 50157
field stddev 28958.013113817
field sum 5031399141
field sqrsum 3.3647817182047e+014
field min 1
field max 100313
statistic Basic.rack[4].node[4].app 	"End-to-End Delay"
field count 100313
field mean 1.3446197841628e-005
field stddev 1.1682857963122e-005
field sum 1.3488284440872
field sqrsum 3.1828115753358e-005
field min 4e-007
field max 0.00013148971
statistic Basic.rack[4].node[4].app 	hops
field count 100313
field mean 2.9992324025799
field stddev 0.70705701927711
field sum 300862
field sqrsum 952504
field min 2
field max 4
statistic Basic.rack[4].node[5].app 	throughput
field count 100236
field mean 50118.5
field stddev 28935.785128453
field sum 5023677966
field sqrsum 3.3570393095931e+014
field min 1
field max 100236
statistic Basic.rack[4].node[5].app 	"End-to-End Delay"
field count 100236
field mean 1.3449751760328e-005
field stddev 1.172409464051e-005
field sum 1.3481493174482
field sqrsum 3.1910014952354e-005
field min 4e-007
field max 0.000120528535
statistic Basic.rack[4].node[5].app 	hops
field count 100236
field mean 2.9994512949439
field stddev 0.70629836709518
field sum 300653
field sqrsum 951797
field min 2
field max 4
statistic Basic.rack[4].node[6].app 	throughput
field count 99924
field mean 49962.5
field stddev 28845.718486458
field sum 4992452850
field sqrsum 3.3257890320655e+014
field min 1
field max 99924
statistic Basic.rack[4].node[6].app 	"End-to-End Delay"
field count 99924
field mean 1.3353630860306e-005
field stddev 1.1636270701729e-005
field sum 1.3343482100852
field sqrsum 3.1348247005699e-005
field min 4e-007
field max 0.000132382495
statistic Basic.rack[4].node[6].app 	hops
field count 99924
field mean 2.9941755734358
field stddev 0.70557028742633
field sum 299190
field sqrsum 945572
field min 2
field max 4
statistic Basic.rack[4].node[7].app 	throughput
field count 99808
field mean 49904.5
field stddev 28812.232170845
field sum 4980868336
field sqrsum 3.314219982091e+014
field min 1
field max 99808
statistic Basic.rack[4].node[7].app 	"End-to-End Delay"
field count 99808
field mean 1.345815340002e-005
field stddev 1.1720783127044e-005
field sum 1.3432313745492
field sqrsum 3.17885758874e-005
field min 4e-007
field max 0.000131730248
statistic Basic.rack[4].node[7].app 	hops
field count 99808
field mean 3.0015028855402
field stddev 0.70819893315969
field sum 299574
field sqrsum 949230
field min 2
field max 4
statistic Basic.rack[4].node[8].app 	throughput
field count 100303
field mean 50152
field stddev 28955.126362471
field sum 5030396056
field sqrsum 3.3637755386866e+014
field min 1
field max 100303
statistic Basic.rack[4].node[8].app 	"End-to-End Delay"
field count 100303
field mean 1.3444751491174e-005
field stddev 1.173433229256e-005
field sum 1.3485489088192
field sqrsum 3.1941944143404e-005
field min 4e-007
field max 0.000123943776
statistic Basic.rack[4].node[8].app 	hops
field count 100303
field mean 2.9970589114982
field stddev 0.7056045160252
field sum 300614
field sqrsum 950896
field min 2
field max 4
statistic Basic.rack[4].node[9].app 	throughput
field count 99962
field mean 49981.5
field stddev 28856.688141573
field sum 4996250703
field sqrsum 3.3295847393242e+014
field min 1
field max 99962
statistic Basic.rack[4].node[9].app 	"End-to-End Delay"
field count 99962
field mean 1.3456600611514e-005
field stddev 1.1688332244974e-005
field sum 1.3451487103282
field sqrsum 3.1757511957553e-005
field min 4e-007
field max 0.000126011716
statistic Basic.rack[4].node[9].app 	hops
field count 99962
field mean 3.0015405854225
field stddev 0.7070025247485
field sum 300040
field sqrsum 950548
field min 2
field max 4
statistic Basic.rack[4].eps.queue[0] 	dropsum
field count 0
field mean nan
field stddev nan
field sum 0
field sqrsum 0
field min nan
field max nan
statistic Basic.rack[4].eps.queue[1] 	dropsum
field count 0
field mean nan
field stddev nan
field sum 0
field sqrsum 0
field min nan
field max nan
statistic Basic.rack[4].eps.queue[2] 	dropsum
field count 0
field mean nan
field stddev nan
field sum 0
field sqrsum 0
field min nan
field max nan
statistic Basic.rack[4].eps.queue[3] 	dropsum
field count 0
field mean nan
field stddev nan
field sum 0
field sqrsum 0
field min nan
field max nan
statistic Basic.rack[5].node[0].app 	throughput
field count 99397
field mean 49699
field stddev 28693.586690525
field sum 4939931503
field sqrsum 3.273445610463e+014
field min 1
field max 99397
statistic Basic.rack[5].node[0].app 	"End-to-End Delay"
field count 99397
field mean 1.341034811573e-005
field stddev 1.1596874219545e-005
field sum 1.3329483716592
field sqrsum 3.1242820405675e-005
field min 4e-007
field max 0.000109855723
statistic Basic.rack[5].node[0].app 	hops
field count 99397
field mean 2.9986015674517
field stddev 0.7054030911797
field sum 298052
field sqrsum 943198
field min 2
field max 4
statistic Basic.rack[5].node[1].app 	throughput
field count 100380
field mean 50190.5
field stddev 28977.354347835
field sum 5038122390
field sqrsum 3.3715282971293e+014
field min 1
field max 100380
statistic Basic.rack[5].node[1].app 	"End-to-End Delay"
field count 100380
field mean 1.34488301637e-005
field stddev 1.1712855070969e-005
field sum 1.3499935718322
field sqrsum 3.1926927040123e-005
field min 4e-007
field max 0.000128082531
statistic Basic.rack[5].node[1].app 	hops
field count 100380
field mean 3.0003586371787
field stddev 0.70763130123599
field sum 301176
field sqrsum 953900
field min 2
field max 4
statistic Basic.rack[5].node[2].app 	throughput
field count 99823
field mean 49912
field stddev 28816.562297864
field sum 4982365576
field sqrsum 3.3157144671722e+014
field min 1
field max 99823
statistic Basic.rack[5].node[2].app 	"End-to-End Delay"
field count 99823
field mean 1.3448526256356e-005
field stddev 1.1672789096743e-005
field sum 1.3424722364882
field sqrsum 3.16554204376e-005
field min 4e-007
field max 0.00012547076
statistic Basic.rack[5].node[2].app 	hops
field count 99823
field mean 2.9996694148643
field stddev 0.70581629715926
field sum 299436
field sqrsum 947938
field min 2
field max 4
statistic Basic.rack[5].node[3].app 	throughput
field count 100376
field mean 50188.5
field stddev 28976.199647297
field sum 5037720876
field sqrsum 3.3711252633988e+014
field min 1
field max 100376
statistic Basic.rack[5].node[3].app 	"End-to-End Delay"
field count 100376
field mean 1.3403492297941e-005
field stddev 1.1673131423831e-005
field sum 1.3453889428982
field sqrsum 3.171020830664e-005
field min 4e-007
field max 0.000136540683
statistic Basic.rack[5].node[3].app 	hops
field count 100376
field mean 2.9960050211206
field stddev 0.70602035195138
field sum 300727
field sqrsum 951013
field min 2
field max 4
statistic Basic.rack[5].node[4].app 	throughput
field count 100183
field mean 50092
field stddev 28920.485346319
field sum 5018366836
field sqrsum 3.351717026096e+014
field min 1
field max 100183
statistic Basic.rack[5].node[4].app 	"End-to-End Delay"
field count 100183
field mean 1.3427799874282e-005
field stddev 1.1622725312455e-005
field sum 1.3452372748052
field sqrsum 3.1596937247739e-005
field min 4e-007
field max 0.000134648478
statistic Basic.rack[5].node[4].app 	hops
field count 100183
field mean 3.0012477166785
field stddev 0.70762779682138
field sum 300674
field sqrsum 952562
field min 2
field max 4
statistic Basic.rack[5].node[5].app 	throughput
field count 99705
field mean 49853
field stddev 28782.498631981
field sum 4970593365
field sqrsum 3.30396997836e+014
field min 1
field max 99705
statistic Basic.rack[5].node[5].app 	"End-to-End Delay"
field count 99705
field mean 1.347717499935e-005
field stddev 1.1649061269813e-005
field sum 1.3437417333102
field sqrsum 3.1639737954511e-005
field min 4e-007
field max 0.000113382925
statistic Basic.rack[5].node[5].app 	hops
field count 99705
field mean 3.0039516573893
field stddev 0.70801712102968
field sum 299509
field sqrsum 949691
field min 2
field max 4
statistic Basic.rack[5].node[6].app 	throughput
field count 100189
field mean 50095
field stddev 28922.217397127
field sum 5018967955
field sqrsum 3.3523192661832e+014
field min 1
field max 100189
statistic Basic.rack[5].node[6].app 	"End-to-End Delay"
field count 100189
field mean 1.3457046595167e-005
field stddev 1.1664284701428e-005
field sum 1.3482480413232
field sqrsum 3.1774568914595e-005
field min 4e-007
field max 0.000129620197
statistic Basic.rack[5].node[6].app 	hops
field count 100189
field mean 3.0026050764056
field stddev 0.70753238007961
field sum 300828
field sqrsum 953422
field min 2
field max 4
statistic Basic.rack[5].node[7].app 	throughput
field count 100482
field mean 50241.5
field stddev 29006.799211564
field sum 5048366403
field sqrsum 3.3818165139296e+014
field min 1
field max 100482
statistic Basic.rack[5].node[7].app 	"End-to-End Delay"
field count 100482
field mean 1.3434207366515e-005
field stddev 1.1638841521766e-005
field sum 1.3498960246022
field sqrsum 3.1746203840596e-005
field min 4e-007
field max 0.000116449879
statistic Basic.rack[5].node[7].app 	hops
field count 100482
field mean 2.9990545570351
field stddev 0.70848761437552
field sum 301351
field sqrsum 954205
field min 2
field max 4
statistic Basic.rack[5].node[8].app 	throughput
field count 99491
field mean 49746
field stddev 28720.722153177
field sum 4949279286
field sqrsum 3.2827414672205e+014
field min 1
field max 99491
statistic Basic.rack[5].node[8].app 	"End-to-End Delay"
field count 99491
field mean 1.3460077704287e-005
field stddev 1.1656720619037e-005
field sum 1.3391565908772
field sqrsum 3.1543766971293e-005
field min 4e-007
field max 0.000132519457
statistic Basic.rack[5].node[8].app 	hops
field count 99491
field mean 3.0027138133097
field stddev 0.70806041792829
field sum 298743
field sqrsum 946919
field min 2
field max 4
statistic Basic.rack[5].node[9].app 	throughput
field count 100303
field mean 50152
field stddev 28955.126362471
field sum 5030396056
field sqrsum 3.3637755386866e+014
field min 1
field max 100303
statistic Basic.rack[5].node[9].app 	"End-to-End Delay"
field count 100303
field mean 1.337985660476e-005
field stddev 1.1581365354191e-005
field sum 1.3420397570272
field sqrsum 3.1409608516723e-005
field min 4e-007
field max 0.000106915405
statistic Basic.rack[5].node[9].app 	hops
field count 100303
field mean 2.9972383677457
field stddev 0.70755243362647
field sum 300632
field sqrsum 951280
field min 2
field max 4
statistic Basic.rack[5].eps.queue[0] 	dropsum
field count 0
field mean nan
field stddev nan
field sum 0
field sqrsum 0
field min nan
field max nan
statistic Basic.rack[5].eps.queue[1] 	dropsum
field count 0
field mean nan
field stddev nan
field sum 0
field sqrsum 0
field min nan
field max nan
statistic Basic.rack[5].eps.queue[2] 	dropsum
field count 0
field mean nan
field stddev nan
field sum 0
field sqrsum 0
field min nan
field max nan
statistic Basic.rack[5].eps.queue[3] 	dropsum
field count 0
field mean nan
field stddev nan
field sum 0
field sqrsum 0
field min nan
field max nan
statistic Basic.rack[6].node[0].app 	throughput
field count 99566
field mean 49783.5
field stddev 28742.372788272
field sum 4956743961
field sqrsum 3.2901709839527e+014
field min 1
field max 99566
statistic Basic.rack[6].node[0].app 	"End-to-End Delay"
field count 99566
field mean 9.6186505489595e-006
field stddev 1.1580625184315e-005
field sum 0.9576905605577
field sqrsum 2.2564440569349e-005
field min 4e-007
field max 0.000105734279
statistic Basic.rack[6].node[0].app 	hops
field count 99566
field mean 3.2501054576864
field stddev 0.82953728886723
field sum 323600
field sqrsum 1120248
field min 2
field max 4
statistic Basic.rack[6].node[1].app 	throughput
field count 100066
field mean 50033.5
field stddev 28886.710355571
field sum 5006652211
field sqrsum 3.3399877564802e+014
field min 1
field max 100066
statistic Basic.rack[6].node[1].app 	"End-to-End Delay"
field count 100066
field mean 9.6761876678962e-006
field stddev 1.1607469641253e-005
field sum 0.9682573951757
field sqrsum 2.2851133081654e-005
field min 4e-007
field max 9.7906364e-005
statistic Basic.rack[6].node[1].app 	hops
field count 100066
field mean 3.2521335918294
field stddev 0.82951758881403
field sum 325428
field sqrsum 1127190
field min 2
field max 4
statistic Basic.rack[6].node[2].app 	throughput
field count 99635
field mean 49818
field stddev 28762.291372559
field sum 4963616430
field sqrsum 3.2970160320751e+014
field min 1
field max 99635
statistic Basic.rack[6].node[2].app 	"End-to-End Delay"
field count 99635
field mean 9.6287384132152e-006
field stddev 1.1505249811557e-005
field sum 0.9593593518007
field sqrsum 2.2426049862392e-005
field min 4e-007
field max 0.000124732389
statistic Basic.rack[6].node[2].app 	hops
field count 99635
field mean 3.2464194309229
field stddev 0.82828138001685
field sum 323457
field sqrsum 1118431
field min 2
field max 4
statistic Basic.rack[6].node[3].app 	throughput
field count 100249
field mean 50125
field stddev 28939.537905203
field sum 5024981125
field sqrsum 3.3583456352712e+014
field min 1
field max 100249
statistic Basic.rack[6].node[3].app 	"End-to-End Delay"
field count 100249
field mean 9.6635325181469e-006
field stddev 1.1583913708048e-005
field sum 0.96875947141171
field sqrsum 2.2813622723886e-005
field min 4e-007
field max 0.000113183801
statistic Basic.rack[6].node[3].app 	hops
field count 100249
field mean 3.2523915450528
field stddev 0.82782869388034
field sum 326049
field sqrsum 1129139
field min 2
field max 4
statistic Basic.rack[6].node[4].app 	throughput
field count 99777
field mean 49889
field stddev 28803.283241672
field sum 4977774753
field sqrsum 3.311132802783e+014
field min 1
field max 99777
statistic Basic.rack[6].node[4].app 	"End-to-End Delay"
field count 99777
field mean 9.6861666281076e-006
field stddev 1.1616168603282e-005
field sum 0.96645664765269
field sqrsum 2.2824571906437e-005
field min 4e-007
field max 0.000104263733
statistic Basic.rack[6].node[4].app 	hops
field count 99777
field mean 3.2513204445914
field stddev 0.82933681717406
field sum 324407
field sqrsum 1123377
field min 2
field max 4
statistic Basic.rack[6].node[5].app 	throughput
field count 99624
field mean 49812.5
field stddev 28759.115946079
field sum 4962520500
field sqrsum 3.295924157015e+014
field min 1
field max 99624
statistic Basic.rack[6].node[5].app 	"End-to-End Delay"
field count 99624
field mean 9.638994648686e-006
field stddev 1.1543562474745e-005
field sum 0.9602752028807
field sqrsum 2.253123430702e-005
field min 4e-007
field max 0.000113944602
statistic Basic.rack[6].node[5].app 	hops
field count 99624
field mean 3.2505219625793
field stddev 0.82827598271337
field sum 323830
field sqrsum 1120962
field min 2
field max 4
statistic Basic.rack[6].node[6].app 	throughput
field count 100254
field mean 50127.5
field stddev 28940.981280876
field sum 5025482385
field sqrsum 3.3588481584466e+014
field min 1
field max 100254
statistic Basic.rack[6].node[6].app 	"End-to-End Delay"
field count 100254
field mean 9.6702829936632e-006
field stddev 1.1597136685249e-005
field sum 0.96948455124671
field sqrsum 2.2858574773736e-005
field min 4e-007
field max 9.7669797e-005
statistic Basic.rack[6].node[6].app 	hops
field count 100254
field mean 3.2510323777605
field stddev 0.82977749958709
field sum 325929
field sqrsum 1128633
field min 2
field max 4
statistic Basic.rack[6].node[7].app 	throughput
field count 100623
field mean 50312
field stddev 29047.502405543
field sum 5062544376
field sqrsum 3.3960728934562e+014
field min 1
field max 100623
statistic Basic.rack[6].node[7].app 	"End-to-End Delay"
field count 100623
field mean 9.6617694083929e-006
field stddev 1.1575487119201e-005
field sum 0.97219622318071
field sqrsum 2.2875668895833e-005
field min 4e-007
field max 0.000119295721
statistic Basic.rack[6].node[7].app 	hops
field count 100623
field mean 3.253391371754
field stddev 0.82733626981839
field sum 327366
field sqrsum 1133924
field min 2
field max 4
statistic Basic.rack[6].node[8].app 	throughput
field count 99736
field mean 49868.5
field stddev 28791.447561154
field sum 4973684716
field sqrsum 3.3070527045156e+014
field min 1
field max 99736
statistic Basic.rack[6].node[8].app 	"End-to-End Delay"
field count 99736
field mean 9.6077738498708e-006
field stddev 1.1597977079703e-005
field sum 0.95824093269072
field sqrsum 2.2622223444943e-005
field min 4e-007
field max 0.000110932754
statistic Basic.rack[6].node[8].app 	hops
field count 99736
field mean 3.2511029116869
field stddev 0.82726498795848
field sum 324252
field sqrsum 1122432
field min 2
field max 4
statistic Basic.rack[6].node[9].app 	throughput
field count 99838
field mean 49919.5
field stddev 28820.892424883
field sum 4983863041
field sqrsum 3.3172094014592e+014
field min 1
field max 99838
statistic Basic.rack[6].node[9].app 	"End-to-End Delay"
field count 99838
field mean 9.6304240353342e-006
field stddev 1.1567356684206e-005
field sum 0.9614822748397
field sqrsum 2.2618046065401e-005
field min 4e-007
field max 0.000121131436
statistic Basic.rack[6].node[9].app 	hops
field count 99838
field mean 3.2525491295899
field stddev 0.82874711581387
field sum 324728
field sqrsum 1124764
field min 2
field max 4
statistic Basic.rack[6].eps.queue[0] 	dropsum
field count 0
field mean nan
field stddev nan
field sum 0
field sqrsum 0
field min nan
field max nan
statistic Basic.rack[6].eps.queue[1] 	dropsum
field count 0
field mean nan
field stddev nan
field sum 0
field sqrsum 0
field min nan
field max nan
statistic Basic.rack[6].eps.queue[2] 	dropsum
field count 0
field mean nan
field stddev nan
field sum 0
field sqrsum 0
field min nan
field max nan
statistic Basic.rack[6].eps.queue[3] 	dropsum
field count 0
field mean nan
field stddev nan
field sum 0
field sqrsum 0
field min nan
field max nan
statistic Basic.rack[7].node[0].app 	throughput
field count 99592
field mean 49796.5
field stddev 28749.878341772
field sum 4959333028
field sqrsum 3.2927491639406e+014
field min 1
field max 99592
statistic Basic.rack[7].node[0].app 	"End-to-End Delay"
field count 99592
field mean 9.6432671219144e-006
field stddev 1.1612476849215e-005
field sum 0.9603922592057
field sqrsum 2.2691127460699e-005
field min 4e-007
field max 0.000132860148
statistic Basic.rack[7].node[0].app 	hops
field count 99592
field mean 3.248483813961
field stddev 0.82977937661631
field sum 323523
field sqrsum 1119531
field min 2
field max 4
statistic Basic.rack[7].node[1].app 	throughput
field count 99702
field mean 49851.5
field stddev 28781.632606577
field sum 4970294253
field sqrsum 3.3036717517316e+014
field min 1
field max 99702
statistic Basic.rack[7].node[1].app 	"End-to-End Delay"
field count 99702
field mean 9.6707150000171e-006
field stddev 1.1625668685361e-005
field sum 0.9641896269317
field sqrsum 2.2799608630665e-005
field min 4e-007
field max 0.000122260003
statistic Basic.rack[7].node[1].app 	hops
field count 99702
field mean 3.2497141481615
field stddev 0.82924951386988
field sum 324003
field sqrsum 1121477
field min 2
field max 4
statistic Basic.rack[7].node[2].app 	throughput
field count 100535
field mean 50268
field stddev 29022.098993698
field sum 5053693380
field sqrsum 3.3871706053666e+014
field min 1
field max 100535
statistic Basic.rack[7].node[2].app 	"End-to-End Delay"
field count 100535
field mean 9.6400750382127e-006
field stddev 1.161953284473e-005
field sum 0.96916494396671
field sqrsum 2.2916274369465e-005
field min 4e-007
field max 0.000117821465
statistic Basic.rack[7].node[2].app 	hops
field count 100535
field mean 3.2497836574327
field stddev 0.83000934878689
field sum 326717
field sqrsum 1131019
field min 2
field max 4
statistic Basic.rack[7].node[3].app 	throughput
field count 99820
field mean 49910.5
field stddev 28815.69627246
field sum 4982066110
field sqrsum 3.3154155342217e+014
field min 1
field max 99820
statistic Basic.rack[7].node[3].app 	"End-to-End Delay"
field count 99820
field mean 9.6942204829564e-006
field stddev 1.1693264519129e-005
field sum 0.96767708860871
field sqrsum 2.3029369993954e-005
field min 4e-007
field max 0.0001278766
statistic Basic.rack[7].node[3].app 	hops
field count 99820
field mean 3.2488078541374
field stddev 0.82861863565388
field sum 324296
field sqrsum 1122112
field min 2
field max 4
statistic Basic.rack[7].node[4].app 	throughput
field count 100597
field mean 50299
field stddev 29039.996852043
field sum 5059928503
field sqrsum 3.393441050537e+014
field min 1
field max 100597
statistic Basic.rack[7].node[4].app 	"End-to-End Delay"
field count 100597
field mean 9.6725873764796e-006
field stddev 1.1582553455137e-005
field sum 0.97303327231172
field sqrsum 2.2907260505314e-005
field min 4e-007
field max 0.000125632539
statistic Basic.rack[7].node[4].app 	hops
field count 100597
field mean 3.2514587910176
field stddev 0.82804856394756
field sum 327087
field sqrsum 1132485
field min 2
field max 4
statistic Basic.rack[7].node[5].app 	throughput
field count 100156
field mean 50078.5
field stddev 28912.691117685
field sum 5015662246
field sqrsum 3.3490078382767e+014
field min 1
field max 100156
statistic Basic.rack[7].node[5].app 	"End-to-End Delay"
field count 100156
field mean 9.6828402280513e-006
field stddev 1.1680419328859e-005
field sum 0.96979454588071
field sqrsum 2.3054732201931e-005
field min 4e-007
field max 0.000120096587
statistic Basic.rack[7].node[5].app 	hops
field count 100156
field mean 3.2498502336355
field stddev 0.82975316663623
field sum 325492
field sqrsum 1126756
field min 2
field max 4
statistic Basic.rack[7].node[6].app 	throughput
field count 99839
field mean 49920
field stddev 28821.181100017
field sum 4983962880
field sqrsum 3.3173090797184e+014
field min 1
field max 99839
statistic Basic.rack[7].node[6].app 	"End-to-End Delay"
field count 99839
field mean 9.6079908694068e-006
field stddev 1.155465859369e-005
field sum 0.9592522004107
field sqrsum 2.2545871262774e-005
field min 4e-007
field max 0.000110407965
statistic Basic.rack[7].node[6].app 	hops
field count 99839
field mean 3.250683600597
field stddev 0.8290188716499
field sum 324545
field sqrsum 1123609
field min 2
field max 4
statistic Basic.rack[7].node[7].app 	throughput
field count 100349
field mean 50175
field stddev 28968.405418663
field sum 5035011075
field sqrsum 3.3684056258048e+014
field min 1
field max 100349
statistic Basic.rack[7].node[7].app 	"End-to-End Delay"
field count 100349
field mean 9.6823043700457e-006
field stddev 1.1672286552973e-005
field sum 0.97160956122972
field sqrsum 2.307905914928e-005
field min 4e-007
field max 0.000109170354
statistic Basic.rack[7].node[7].app 	hops
field count 100349
field mean 3.2547708497344
field stddev 0.82779263532902
field sum 326613
field sqrsum 1131813
field min 2
field max 4
statistic Basic.rack[7].node[8].app 	throughput
field count 99833
field mean 49917
field stddev 28819.44904921
field sum 4983363861
field sqrsum 3.3167110401143e+014
field min 1
field max 99833
statistic Basic.rack[7].node[8].app 	"End-to-End Delay"
field count 99833
field mean 9.6578596347272e-006
field stddev 1.1618779610487e-005
field sum 0.96417310091372
field sqrsum 2.2788773101253e-005
field min 4e-007
field max 0.000137140141
statistic Basic.rack[7].node[8].app 	hops
field count 99833
field mean 3.2550258932417
field stddev 0.8284705777864
field sum 324959
field sqrsum 1126271
field min 2
field max 4
statistic Basic.rack[7].node[9].app 	throughput
field count 100386
field mean 50193.5
field stddev 28979.086398643
field sum 5038724691
field sqrsum 3.3721329079538e+014
field min 1
field max 100386
statistic Basic.rack[7].node[9].app 	"End-to-End Delay"
field count 100386
field mean 9.6318975713616e-006
field stddev 1.1625621270894e-005
field sum 0.96690766959871
field sqrsum 2.2880697329889e-005
field min 4e-007
field max 0.000107520102
statistic Basic.rack[7].node[9].app 	hops
field count 100386
field mean 3.2539198693045
field stddev 0.82744177121896
field sum 326648
field sqrsum 1131616
field min 2
field max 4
statistic Basic.rack[7].eps.queue[0] 	dropsum
field count 0
field mean nan
field stddev nan
field sum 0
field sqrsum 0
field min nan
field max nan
statistic Basic.rack[7].eps.queue[1] 	dropsum
field count 0
field mean nan
field stddev nan
field sum 0
field sqrsum 0
field min nan
field max nan
statistic Basic.rack[7].eps.queue[2] 	dropsum
field count 0
field mean nan
field stddev nan
field sum 0
field sqrsum 0
field min nan
field max nan
statistic Basic.rack[7].eps.queue[3] 	dropsum
field count 0
field mean nan
field stddev nan
field sum 0
field sqrsum 0
field min nan
field max nan
statistic Basic.rack[8].node[0].app 	throughput
field count 99844
field mean 49922.5
field stddev 28822.62447569
field sum 4984462090
field sqrsum 3.3178075009667e+014
field min 1
field max 99844
statistic Basic.rack[8].node[0].app 	"End-to-End Delay"
field count 99844
field mean 1.3448028890321e-005
field stddev 1.1660543845493e-005
field sum 1.3427049965252
field sqrsum 3.1632216841319e-005
field min 4e-007
field max 0.000105667505
statistic Basic.rack[8].node[0].app 	hops
field count 99844
field mean 3.0002804374825
field stddev 0.7062031693899
field sum 299560
field sqrsum 948558
field min 2
field max 4
statistic Basic.rack[8].node[1].app 	throughput
field count 99965
field mean 49983
field stddev 28857.554166977
field sum 4996550595
field sqrsum 3.3298845233632e+014
field min 1
field max 99965
statistic Basic.rack[8].node[1].app 	"End-to-End Delay"
field count 99965
field mean 1.3443719173142e-005
field stddev 1.1652042271295e-005
field sum 1.3439013871432
field sqrsum 3.1639154031148e-005
field min 4e-007
field max 0.000111699706
statistic Basic.rack[8].node[1].app 	hops
field count 99965
field mean 3.0004101435502
field stddev 0.707750068526
field sum 299936
field sqrsum 950004
field min 2
field max 4
statistic Basic.rack[8].node[2].app 	throughput
field count 99964
field mean 49982.5
field stddev 28857.265491842
field sum 4996450630
field sqrsum 3.3297845933509e+014
field min 1
field max 99964
statistic Basic.rack[8].node[2].app 	"End-to-End Delay"
field count 99964
field mean 1.3473224620325e-005
field stddev 1.167204328618e-005
field sum 1.3468374259462
field sqrsum 3.1764861860283e-005
field min 4e-007
field max 0.00012627236
statistic Basic.rack[8].node[2].app 	hops
field count 99964
field mean 3.0001800648233
field stddev 0.70453078153372
field sum 299910
field sqrsum 949402
field min 2
field max 4
statistic Basic.rack[8].node[3].app 	throughput
field count 100538
field mean 50269.5
field stddev 29022.965019102
field sum 5053994991
field sqrsum 3.3874738360177e+014
field min 1
field max 100538
statistic Basic.rack[8].node[3].app 	"End-to-End Delay"
field count 100538
field mean 1.3444762237514e-005
field stddev 1.1744078832899e-005
field sum 1.3517095058352
field sqrsum 3.2039816542637e-005
field min 4e-007
field max 0.00012957765
statistic Basic.rack[8].node[3].app 	hops
field count 100538
field mean 2.9971751974378
field stddev 0.70699914773789
field sum 301330
field sqrsum 953392
field min 2
field max 4
statistic Basic.rack[8].node[4].app 	throughput
field count 99809
field mean 49905
field stddev 28812.520845979
field sum 4980968145
field sqrsum 3.3143196004558e+014
field min 1
field max 99809
statistic Basic.rack[8].node[4].app 	"End-to-End Delay"
field count 99809
field mean 1.3494080749042e-005
field stddev 1.1692195565974e-005
field sum 1.3468307054812
field sqrsum 3.1818738182418e-005
field min 4e-007
field max 0.000126097992
statistic Basic.rack[8].node[4].app 	hops
field count 99809
field mean 3.0021340760853
field stddev 0.7087665104626
field sum 299640
field sqrsum 949698
field min 2
field max 4
statistic Basic.rack[8].node[5].app 	throughput
field count 100166
field mean 50083.5
field stddev 28915.577869031
field sum 5016663861
field sqrsum 3.3500110708857e+014
field min 1
field max 100166
statistic Basic.rack[8].node[5].app 	"End-to-End Delay"
field count 100166
field mean 1.3488800718619e-005
field stddev 1.1703305731873e-005
field sum 1.3511192127812
field sqrsum 3.1944313928904e-005
field min 4e-007
field max 0.000138353577
statistic Basic.rack[8].node[5].app 	hops
field count 100166
field mean 3.0018169838069
field stddev 0.70516396697926
field sum 300680
field sqrsum 952394
field min 2
field max 4
statistic Basic.rack[8].node[6].app 	throughput
field count 99544
field mean 49772.5
field stddev 28736.021935311
field sum 4954553740
field sqrsum 3.2879904984762e+014
field min 1
field max 99544
statistic Basic.rack[8].node[6].app 	"End-to-End Delay"
field count 99544
field mean 1.3451167540125e-005
field stddev 1.164399127299e-005
field sum 1.3389830216142
field sqrsum 3.1507177016188e-005
field min 4e-007
field max 0.000130096605
statistic Basic.rack[8].node[6].app 	hops
field count 99544
field mean 3
field stddev 0.7061293701592
field sum 298632
field sqrsum 945530
field min 2
field max 4
statistic Basic.rack[8].node[7].app 	throughput
field count 99993
field mean 49997
field stddev 28865.637070746
field sum 4999350021
field sqrsum 3.3326833754991e+014
field min 1
field max 99993
statistic Basic.rack[8].node[7].app 	"End-to-End Delay"
field count 99993
field mean 1.3449959346436e-005
field stddev 1.1684921488902e-005
field sum 1.3449017849282
field sqrsum 3.1741521053293e-005
field min 4e-007
field max 0.000108100472
statistic Basic.rack[8].node[7].app 	hops
field count 99993
field mean 2.9997799845989
field stddev 0.70757332086291
field sum 299957
field sqrsum 949867
field min 2
field max 4
statistic Basic.rack[8].node[8].app 	throughput
field count 99525
field mean 49763
field stddev 28730.537107753
field sum 4952662575
field sqrsum 3.2861081273878e+014
field min 1
field max 99525
statistic Basic.rack[8].node[8].app 	"End-to-End Delay"
field count 99525
field mean 1.3465612753451e-005
field stddev 1.1677847909317e-005
field sum 1.3401651092872
field sqrsum 3.1618444431927e-005
field min 4e-007
field max 0.000106008529
statistic Basic.rack[8].node[8].app 	hops
field count 99525
field mean 3.0012559658377
field stddev 0.70705592971161
field sum 298700
field sqrsum 946230
field min 2
field max 4
statistic Basic.rack[8].node[9].app 	throughput
field count 100008
field mean 50004.5
field stddev 28869.967197765
field sum 5000850036
field sqrsum 3.334183405502e+014
field min 1
field max 100008
statistic Basic.rack[8].node[9].app 	"End-to-End Delay"
field count 100008
field mean 1.3532800322726e-005
field stddev 1.1686262206309e-005
field sum 1.3533882946752
field sqrsum 3.1972961967485e-005
field min 4e-007
field max 0.000111134716
statistic Basic.rack[8].node[9].app 	hops
field count 100008
field mean 3.0040196784257
field stddev 0.70773496358328
field sum 300426
field sqrsum 952578
field min 2
field max 4
statistic Basic.rack[8].eps.queue[0] 	dropsum
field count 0
field mean nan
field stddev nan
field sum 0
field sqrsum 0
field min nan
field max nan
statistic Basic.rack[8].eps.queue[1] 	dropsum
field count 0
field mean nan
field stddev nan
field sum 0
field sqrsum 0
field min nan
field max nan
statistic Basic.rack[8].eps.queue[2] 	dropsum
field count 0
field mean nan
field stddev nan
field sum 0
field sqrsum 0
field min nan
field max nan
statistic Basic.rack[8].eps.queue[3] 	dropsum
field count 0
field mean nan
field stddev nan
field sum 0
field sqrsum 0
field min nan
field max nan
statistic Basic.rack[9].node[0].app 	throughput
field count 99943
field mean 49972
field stddev 28851.203314016
field sum 4994351596
field sqrsum 3.3276865248988e+014
field min 1
field max 99943
statistic Basic.rack[9].node[0].app 	"End-to-End Delay"
field count 99943
field mean 1.3399288725205e-005
field stddev 1.1692078719192e-005
field sum 1.3391651130632
field sqrsum 3.1606401605356e-005
field min 4e-007
field max 0.000135432942
statistic Basic.rack[9].node[0].app 	hops
field count 99943
field mean 2.9962478612809
field stddev 0.70737978020919
field sum 299454
field sqrsum 947248
field min 2
field max 4
statistic Basic.rack[9].node[1].app 	throughput
field count 100098
field mean 50049.5
field stddev 28895.947959878
field sum 5009854851
field sqrsum 3.3431930386855e+014
field min 1
field max 100098
statistic Basic.rack[9].node[1].app 	"End-to-End Delay"
field count 100098
field mean 1.3465074126468e-005
field stddev 1.1706675681377e-005
field sum 1.3478269899112
field sqrsum 3.1866509366486e-005
field min 4e-007
field max 0.000108687945
statistic Basic.rack[9].node[1].app 	hops
field count 100098
field mean 3.0000699314672
field stddev 0.70641768093887
field sum 300301
field sqrsum 950875
field min 2
field max 4
statistic Basic.rack[9].node[2].app 	throughput
field count 100103
field mean 50052
field stddev 28897.391335551
field sum 5010355356
field sqrsum 3.3436940491956e+014
field min 1
field max 100103
statistic Basic.rack[9].node[2].app 	"End-to-End Delay"
field count 100103
field mean 1.3414130385465e-005
field stddev 1.1708207032541e-005
field sum 1.3427946939762
field sqrsum 3.1734616673007e-005
field min 4e-007
field max 0.000114139068
statistic Basic.rack[9].node[2].app 	hops
field count 100103
field mean 2.9986513890693
field stddev 0.70793854172295
field sum 300174
field sqrsum 950286
field min 2
field max 4
statistic Basic.rack[9].node[3].app 	throughput
field count 99957
field mean 49979
field stddev 28855.2447659
field sum 4995750903
field sqrsum 3.3290851392442e+014
field min 1
field max 99957
statistic Basic.rack[9].node[3].app 	"End-to-End Delay"
field count 99957
field mean 1.3445302834791e-005
field stddev 1.1724151639071e-005
field sum 1.3439521354572
field sqrsum 3.1809368570086e-005
field min 4e-007
field max 0.000125200234
statistic Basic.rack[9].node[3].app 	hops
field count 99957
field mean 3.0006602839221
field stddev 0.7066818944225
field sum 299937
field sqrsum 949927
field min 2
field max 4
statistic Basic.rack[9].node[4].app 	throughput
field count 99504
field mean 49752.5
field stddev 28724.474929927
field sum 4950572760
field sqrsum 3.2840284479828e+014
field min 1
field max 99504
statistic Basic.rack[9].node[4].app 	"End-to-End Delay"
field count 99504
field mean 1.3440532820803e-005
field stddev 1.1690983566408e-005
field sum 1.3373867778012
field sqrsum 3.1575171045063e-005
field min 4e-007
field max 0.000121100623
statistic Basic.rack[9].node[4].app 	hops
field count 99504
field mean 3.0002512461811
field stddev 0.70531009133815
field sum 298537
field sqrsum 945185
field min 2
field max 4
statistic Basic.rack[9].node[5].app 	throughput
field count 100169
field mean 50085
field stddev 28916.443894435
field sum 5016964365
field sqrsum 3.3503120797324e+014
field min 1
field max 100169
statistic Basic.rack[9].node[5].app 	"End-to-End Delay"
field count 100169
field mean 1.3449998052882e-005
field stddev 1.1714077235178e-005
field sum 1.3472728549592
field sqrsum 3.1865830716794e-005
field min 4e-007
field max 0.000142670581
statistic Basic.rack[9].node[5].app 	hops
field count 100169
field mean 3.0008585490521
field stddev 0.70685208259706
field sum 300593
field sqrsum 952085
field min 2
field max 4
statistic Basic.rack[9].node[6].app 	throughput
field count 100057
field mean 50029
field stddev 28884.11227936
field sum 5005751653
field sqrsum 3.3390866401336e+014
field min 1
field max 100057
statistic Basic.rack[9].node[6].app 	"End-to-End Delay"
field count 100057
field mean 1.342960840608e-005
field stddev 1.1693410340658e-005
field sum 1.3437263282872
field sqrsum 3.172696014068e-005
field min 4e-007
field max 0.00013632055
statistic Basic.rack[9].node[6].app 	hops
field count 100057
field mean 3.0012492879059
field stddev 0.70694311510336
field sum 300296
field sqrsum 951268
field min 2
field max 4
statistic Basic.rack[9].node[7].app 	throughput
field count 99918
field mean 49959.5
field stddev 28843.986435651
field sum 4991853321
field sqrsum 3.3251899736956e+014
field min 1
field max 99918
statistic Basic.rack[9].node[7].app 	"End-to-End Delay"
field count 99918
field mean 1.3487633505516e-005
field stddev 1.1787381468172e-005
field sum 1.3476573646042
field sqrsum 3.2059412596376e-005
field min 4e-007
field max 0.000135950609
statistic Basic.rack[9].node[7].app 	hops
field count 99918
field mean 3.0007806401249
field stddev 0.70632391484575
field sum 299832
field sqrsum 949578
field min 2
field max 4
statistic Basic.rack[9].node[8].app 	throughput
field count 100237
field mean 50119
field stddev 28936.073803588
field sum 5023778203
field sqrsum 3.3571397841548e+014
field min 1
field max 100237
statistic Basic.rack[9].node[8].app 	"End-to-End Delay"
field count 100237
field mean 1.3438292246528e-005
field stddev 1.171215031949e-005
field sum 1.3470140999152
field sqrsum 3.1851388819253e-005
field min 4e-007
field max 0.000112978036
statistic Basic.rack[9].node[8].app 	hops
field count 100237
field mean 2.9996907329629
field stddev 0.70687387935848
field sum 300680
field sqrsum 952032
field min 2
field max 4
statistic Basic.rack[9].node[9].app 	throughput
field count 99829
field mean 49915
field stddev 28818.294348671
field sum 4982964535
field sqrsum 3.3163123869786e+014
field min 1
field max 99829
statistic Basic.rack[9].node[9].app 	"End-to-End Delay"
field count 99829
field mean 1.3396981688008e-005
field stddev 1.1635922166945e-005
field sum 1.3374072849322
field sqrsum 3.1433401487401e-005
field min 4e-007
field max 0.000108104756
statistic Basic.rack[9].node[9].app 	hops
field count 99829
field mean 2.997385529255
field stddev 0.70624434842937
field sum 299226
field sqrsum 946688
field min 2
field max 4
statistic Basic.rack[9].eps.queue[0] 	dropsum
field count 0
field mean nan
field stddev nan
field sum 0
field sqrsum 0
field min nan
field max nan
statistic Basic.rack[9].eps.queue[1] 	dropsum
field count 0
field mean nan
field stddev nan
field sum 0
field sqrsum 0
field min nan
field max nan
statistic Basic.rack[9].eps.queue[2] 	dropsum
field count 0
field mean nan
field stddev nan
field sum 0
field sqrsum 0
field min nan
field max nan
statistic Basic.rack[9].eps.queue[3] 	dropsum
field count 0
field mean nan
field stddev nan
field sum 0
field sqrsum 0
field min nan
field max nan
statistic Basic.rack[10].node[0].app 	throughput
field count 100082
field mean 50041.5
field stddev 28891.329157725
field sum 5008253403
field sqrsum 3.3415901413716e+014
field min 1
field max 100082
statistic Basic.rack[10].node[0].app 	"End-to-End Delay"
field count 100082
field mean 9.6162194707011e-006
field stddev 1.1530073146314e-005
field sum 0.96241047706671
field sqrsum 2.2559777393838e-005
field min 4e-007
field max 0.000103825993
statistic Basic.rack[10].node[0].app 	hops
field count 100082
field mean 3.2464279290981
field stddev 0.82999727379803
field sum 324909
field sqrsum 1123739
field min 2
field max 4
statistic Basic.rack[10].node[1].app 	throughput
field count 100215
field mean 50108
field stddev 28929.722950626
field sum 5021573220
field sqrsum 3.3549298068594e+014
field min 1
field max 100215
statistic Basic.rack[10].node[1].app 	"End-to-End Delay"
field count 100215
field mean 9.6229582213712e-006
field stddev 1.1569330782281e-005
field sum 0.96436475815472
field sqrsum 2.2693627027626e-005
field min 4e-007
field max 0.000116178691
statistic Basic.rack[10].node[1].app 	hops
field count 100215
field mean 3.2504215935738
field stddev 0.83015624780506
field sum 325741
field sqrsum 1127859
field min 2
field max 4
statistic Basic.rack[10].node[2].app 	throughput
field count 100094
field mean 50047.5
field stddev 28894.79325934
field sum 5009454465
field sqrsum 3.342792266313e+014
field min 1
field max 100094
statistic Basic.rack[10].node[2].app 	"End-to-End Delay"
field count 100094
field mean 9.6072219386848e-006
field stddev 1.1617452205079e-005
field sum 0.96162527273072
field sqrsum 2.2747618753906e-005
field min 4e-007
field max 0.000129725917
statistic Basic.rack[10].node[2].app 	hops
field count 100094
field mean 3.2473674745739
field stddev 0.8294407750624
field sum 325042
field sqrsum 1124392
field min 2
field max 4
statistic Basic.rack[10].node[3].app 	throughput
field count 100310
field mean 50155.5
field stddev 28957.147088413
field sum 5031098205
field sqrsum 3.3644798432844e+014
field min 1
field max 100310
statistic Basic.rack[10].node[3].app 	"End-to-End Delay"
field count 100310
field mean 9.6339991074241e-006
field stddev 1.1640713603386e-005
field sum 0.96638645046571
field sqrsum 2.2902658940696e-005
field min 4e-007
field max 0.000126056068
statistic Basic.rack[10].node[3].app 	hops
field count 100310
field mean 3.2474329578307
field stddev 0.82957856771518
field sum 325750
field sqrsum 1126884
field min 2
field max 4
statistic Basic.rack[10].node[4].app 	throughput
field count 99897
field mean 49949
field stddev 28837.924257824
field sum 4989755253
field sqrsum 3.3230938359104e+014
field min 1
field max 99897
statistic Basic.rack[10].node[4].app 	"End-to-End Delay"
field count 99897
field mean 9.5683945951801e-006
field stddev 1.1501717949782e-005
field sum 0.95585391487471
field sqrsum 2.236118090286e-005
field min 4e-007
field max 0.000132226543
statistic Basic.rack[10].node[4].app 	hops
field count 99897
field mean 3.2496871777931
field stddev 0.82946130321959
field sum 324634
field sqrsum 1123688
field min 2
field max 4
statistic Basic.rack[10].node[5].app 	throughput
field count 100033
field mean 50017
field stddev 28877.184076129
field sum 5003350561
field sqrsum 3.3366844556253e+014
field min 1
field max 100033
statistic Basic.rack[10].node[5].app 	"End-to-End Delay"
field count 100033
field mean 9.5889135213251e-006
field stddev 1.1533999778451e-005
field sum 0.95920778627871
field sqrsum 2.2505332661367e-005
field min 4e-007
field max 0.000130546769
statistic Basic.rack[10].node[5].app 	hops
field count 100033
field mean 3.2450891205902
field stddev 0.82811958680428
field sum 324616
field sqrsum 1122008
field min 2
field max 4
statistic Basic.rack[10].node[6].app 	throughput
field count 100560
field mean 50280.5
field stddev 29029.315872063
field sum 5056207080
field sqrsum 3.3896980804556e+014
field min 1
field max 100560
statistic Basic.rack[10].node[6].app 	"End-to-End Delay"
field count 100560
field mean 9.6282035841558e-006
field stddev 1.1633402647863e-005
field sum 0.96821215242271
field sqrsum 2.2931402288867e-005
field min 4e-007
field max 0.000121547215
statistic Basic.rack[10].node[6].app 	hops
field count 100560
field mean 3.2473448687351
field stddev 0.83051321243178
field sum 326553
field sqrsum 1129791
field min 2
field max 4
statistic Basic.rack[10].node[7].app 	throughput
field count 100339
field mean 50170
field stddev 28965.518667317
field sum 5034007630
field sqrsum 3.3673987239359e+014
field min 1
field max 100339
statistic Basic.rack[10].node[7].app 	"End-to-End Delay"
field count 100339
field mean 9.6054441117783e-006
field stddev 1.1622159759237e-005
field sum 0.96380065673172
field sqrsum 2.2810848304e-005
field min 4e-007
field max 0.000130184825
statistic Basic.rack[10].node[7].app 	hops
field count 100339
field mean 3.2465242826817
field stddev 0.83058292758593
field sum 325753
field sqrsum 1126785
field min 2
field max 4
statistic Basic.rack[10].node[8].app 	throughput
field count 99997
field mean 49999
field stddev 28866.791771284
field sum 4999750003
field sqrsum 3.3330833395e+014
field min 1
field max 99997
statistic Basic.rack[10].node[8].app 	"End-to-End Delay"
field count 99997
field mean 9.5538789205548e-006
field stddev 1.149656880592e-005
field sum 0.95535923041871
field sqrsum 2.2343967159602e-005
field min 4e-007
field max 0.000113434969
statistic Basic.rack[10].node[8].app 	hops
field count 99997
field mean 3.2491474744242
field stddev 0.82867054129889
field sum 324905
field sqrsum 1124331
field min 2
field max 4
statistic Basic.rack[10].node[9].app 	throughput
field count 100313
field mean 50157
field stddev 28958.013113817
field sum 5031399141
field sqrsum 3.3647817182047e+014
field min 1
field max 100313
statistic Basic.rack[10].node[9].app 	"End-to-End Delay"
field count 100313
field mean 9.6744262294091e-006
field stddev 1.1663405769062e-005
field sum 0.97047071835071
field sqrsum 2.3034693716514e-005
field min 4e-007
field max 0.000124784271
statistic Basic.rack[10].node[9].app 	hops
field count 100313
field mean 3.2479040602913
field stddev 0.82977287642117
field sum 325807
field sqrsum 1127257
field min 2
field max 4
statistic Basic.rack[10].eps.queue[0] 	dropsum
field count 0
field mean nan
field stddev nan
field sum 0
field sqrsum 0
field min nan
field max nan
statistic Basic.rack[10].eps.queue[1] 	dropsum
field count 0
field mean nan
field stddev nan
field sum 0
field sqrsum 0
field min nan
field max nan
statistic Basic.rack[10].eps.queue[2] 	dropsum
field count 0
field mean nan
field stddev nan
field sum 0
field sqrsum 0
field min nan
field max nan
statistic Basic.rack[10].eps.queue[3] 	dropsum
field count 0
field mean nan
field stddev nan
field sum 0
field sqrsum 0
field min nan
field max nan
statistic Basic.rack[11].node[0].app 	throughput
field count 100101
field mean 50051
field stddev 28896.813985282
field sum 5010155151
field sqrsum 3.3434936389855e+014
field min 1
field max 100101
statistic Basic.rack[11].node[0].app 	"End-to-End Delay"
field count 100101
field mean 9.6114014984537e-006
field stddev 1.1626098152572e-005
field sum 0.96211090139671
field sqrsum 2.2777366600512e-005
field min 4e-007
field max 0.000113542731
statistic Basic.rack[11].node[0].app 	hops
field count 100101
field mean 3.2516957872549
field stddev 0.82966674002375
field sum 325498
field sqrsum 1127324
field min 2
field max 4
statistic Basic.rack[11].node[1].app 	throughput
field count 100461
field mean 50231
field stddev 29000.737033738
field sum 5046256491
field sqrsum 3.3796966431373e+014
field min 1
field max 100461
statistic Basic.rack[11].node[1].app 	"End-to-End Delay"
field count 100461
field mean 9.7074442929964e-006
field stddev 1.1589130362476e-005
field sum 0.97521956111871
field sqrsum 2.2959465472423e-005
field min 4e-007
field max 0.000102869791
statistic Basic.rack[11].node[1].app 	hops
field count 100461
field mean 3.2528642955973
field stddev 0.82665075227976
field sum 326786
field sqrsum 1131640
field min 2
field max 4
statistic Basic.rack[11].node[2].app 	throughput
field count 100063
field mean 50032
field stddev 28885.844330167
field sum 5006352016
field sqrsum 3.3396873663534e+014
field min 1
field max 100063
statistic Basic.rack[11].node[2].app 	"End-to-End Delay"
field count 100063
field mean 9.6749412796809e-006
field stddev 1.1650739560111e-005
field sum 0.96810364926871
field sqrsum 2.2948735052474e-005
field min 4e-007
field max 0.000110853401
statistic Basic.rack[11].node[2].app 	hops
field count 100063
field mean 3.2544297092832
field stddev 0.8291492612583
field sum 325648
field sqrsum 1128590
field min 2
field max 4
[...]
field min 2
field max 4
statistic Basic.rack[13].node[2].app 	throughput
field count 100869
field mean 50435
field stddev 29118.516488654
field sum 5087328015
field sqrsum 3.421041554727e+014
field min 1
field max 100869
statistic Basic.rack[13].node[2].app 	"End-to-End Delay"
field count 100869
field mean 1.346964456179e-005
field stddev 1.172235127802e-005
field sum 1.3586695773032
field sqrsum 3.2161423166634e-005
field min 4e-007
field max 0.000119402273
statistic Basic.rack[13].node[2].app 	hops
field count 100869
field mean 2.9991176674697
field stddev 0.7062995947779
field sum 302518
field sqrsum 957606
field min 2
field max 4
statistic Basic.rack[13].node[3].app 	throughput
field count 99629
field mean 49815
field stddev 28760.559321752
field sum 4963018635
field sqrsum 3.2964204339716e+014
field min 1
field max 99629
statistic Basic.rack[13].node[3].app 	"End-to-End Delay"
field count 99629
field mean 1.3442193916522e-005
field stddev 1.1690635101868e-005
field sum 1.3392323377092
field sqrsum 3.1618474098208e-005
field min 4e-007
field max 0.000109698417
statistic Basic.rack[13].node[3].app 	hops
field count 99629
field mean 2.9987353079927
field stddev 0.70632449572346
field sum 298761
field sqrsum 945609
field min 2
field max 4
statistic Basic.rack[13].node[4].app 	throughput
field count 100199
field mean 50100
field stddev 28925.104148473
field sum 5019969900
field sqrsum 3.353323159967e+014
field min 1
field max 100199
statistic Basic.rack[13].node[4].app 	"End-to-End Delay"
field count 100199
field mean 1.349683603118e-005
field stddev 1.1741261924108e-005
field sum 1.3523694734882
field sqrsum 3.2065727926145e-005
field min 4e-007
field max 0.000117634069
statistic Basic.rack[13].node[4].app 	hops
field count 100199
field mean 2.9993213505125
field stddev 0.70591279845169
field sum 300529
field sqrsum 951313
field min 2
field max 4
statistic Basic.rack[13].node[5].app 	throughput
field count 100036
field mean 50018.5
field stddev 28878.050101533
field sum 5003650666
field sqrsum 3.3369846656621e+014
field min 1
field max 100036
statistic Basic.rack[13].node[5].app 	"End-to-End Delay"
field count 100036
field mean 1.3455322661504e-005
field stddev 1.1708419729898e-005
field sum 1.3460166577662
field sqrsum 3.1824595743388e-005
field min 4e-007
field max 0.000114175215
statistic Basic.rack[13].node[5].app 	hops
field count 100036
field mean 2.9976608420968
field stddev 0.70564881299692
field sum 299874
field sqrsum 948732
field min 2
field max 4
statistic Basic.rack[13].node[6].app 	throughput
field count 100108
field mean 50054.5
field stddev 28898.834711224
field sum 5010855886
field sqrsum 3.3441951097575e+014
field min 1
field max 100108
statistic Basic.rack[13].node[6].app 	"End-to-End Delay"
field count 100108
field mean 1.3468884958257e-005
field stddev 1.1687735117515e-005
field sum 1.3483431354012
field sqrsum 3.1835610329977e-005
field min 4e-007
field max 0.000119246483
statistic Basic.rack[13].node[6].app 	hops
field count 100108
field mean 2.9997902265553
field stddev 0.70679235397373
field sum 300303
field sqrsum 950855
field min 2
field max 4
statistic Basic.rack[13].node[7].app 	throughput
field count 99734
field mean 49867.5
field stddev 28790.870210885
field sum 4973485245
field sqrsum 3.3068537611164e+014
field min 1
field max 99734
statistic Basic.rack[13].node[7].app 	"End-to-End Delay"
field count 99734
field mean 1.3424736576856e-005
field stddev 1.1698692556071e-005
field sum 1.3389026777562
field sqrsum 3.1623815041264e-005
field min 4e-007
field max 0.000131656305
statistic Basic.rack[13].node[7].app 	hops
field count 99734
field mean 2.9976738123408
field stddev 0.70860091092568
field sum 298970
field sqrsum 946292
field min 2
field max 4
statistic Basic.rack[13].node[8].app 	throughput
field count 100206
field mean 50103.5
field stddev 28927.124874415
field sum 5020671321
field sqrsum 3.3540260048519e+014
field min 1
field max 100206
statistic Basic.rack[13].node[8].app 	"End-to-End Delay"
field count 100206
field mean 1.3430033099916e-005
field stddev 1.1651103924052e-005
field sum 1.3457698968102
field sqrsum 3.1676384909581e-005
field min 4e-007
field max 0.00011493241
statistic Basic.rack[13].node[8].app 	hops
field count 100206
field mean 2.9989022613416
field stddev 0.70609964610634
field sum 300508
field sqrsum 951154
field min 2
field max 4
statistic Basic.rack[13].node[9].app 	throughput
field count 100292
field mean 50146.5
field stddev 28951.95093599
field sum 5029292778
field sqrsum 3.3626689729171e+014
field min 1
field max 100292
statistic Basic.rack[13].node[9].app 	"End-to-End Delay"
field count 100292
field mean 1.3488063251507e-005
field stddev 1.1772617339988e-005
field sum 1.3527448396202
field sqrsum 3.2145690868364e-005
field min 4e-007
field max 0.000124853917
statistic Basic.rack[13].node[9].app 	hops
field count 100292
field mean 3.0001196506202
field stddev 0.70746273428186
field sum 300888
field sqrsum 952896
field min 2
field max 4
statistic Basic.rack[13].eps.queue[0] 	dropsum
field count 0
field mean nan
field stddev nan
field sum 0
field sqrsum 0
field min nan
field max nan
statistic Basic.rack[13].eps.queue[1] 	dropsum
field count 0
field mean nan
field stddev nan
field sum 0
field sqrsum 0
field min nan
field max nan
statistic Basic.rack[13].eps.queue[2] 	dropsum
field count 0
field mean nan
field stddev nan
field sum 0
field sqrsum 0
field min nan
field max nan
statistic Basic.rack[13].eps.queue[3] 	dropsum
field count 0
field mean nan
field stddev nan
field sum 0
field sqrsum 0
field min nan
field max nan
statistic Basic.rack[14].node[0].app 	throughput
field count 100372
field mean 50186.5
field stddev 28975.044946758
field sum 5037319378
field sqrsum 3.3707222617887e+014
field min 1
field max 100372
statistic Basic.rack[14].node[0].app 	"End-to-End Delay"
field count 100372
field mean 9.6366348335862e-006
field stddev 1.1600934876574e-005
field sum 0.96724831151671
field sqrsum 2.2829117579534e-005
field min 4e-007
field max 0.000120538883
statistic Basic.rack[14].node[0].app 	hops
field count 100372
field mean 3.2497907783047
field stddev 0.82980590038008
field sum 326188
field sqrsum 1129156
field min 2
field max 4
statistic Basic.rack[14].node[1].app 	throughput
field count 100217
field mean 50109
field stddev 28930.300300896
field sum 5021773653
field sqrsum 3.3551306737968e+014
field min 1
field max 100217
statistic Basic.rack[14].node[1].app 	"End-to-End Delay"
field count 100217
field mean 9.646036073288e-006
field stddev 1.159299263563e-005
field sum 0.96669679715671
field sqrsum 2.2793569857585e-005
field min 4e-007
field max 9.7501218e-005
statistic Basic.rack[14].node[1].app 	hops
field count 100217
field mean 3.2491693026133
field stddev 0.82779816011491
field sum 325622
field sqrsum 1126674
field min 2
field max 4
statistic Basic.rack[14].node[2].app 	throughput
field count 99725
field mean 49863
field stddev 28788.272134673
field sum 4972587675
field sqrsum 3.3059586145548e+014
field min 1
field max 99725
statistic Basic.rack[14].node[2].app 	"End-to-End Delay"
field count 99725
field mean 9.6227975214913e-006
field stddev 1.158917599813e-005
field sum 0.95963348283071
field sqrsum 2.26281894476e-005
field min 4e-007
field max 0.000101006596
statistic Basic.rack[14].node[2].app 	hops
field count 99725
field mean 3.2539984958636
field stddev 0.82821214830411
field sum 324505
field sqrsum 1124343
field min 2
field max 4
statistic Basic.rack[14].node[3].app 	throughput
field count 100183
field mean 50092
field stddev 28920.485346319
field sum 5018366836
field sqrsum 3.351717026096e+014
field min 1
field max 100183
statistic Basic.rack[14].node[3].app 	"End-to-End Delay"
field count 100183
field mean 9.7379805257849e-006
field stddev 1.1686170573628e-005
field sum 0.97558010301471
field sqrsum 2.318169343014e-005
field min 4e-007
field max 0.000103979777
statistic Basic.rack[14].node[3].app 	hops
field count 100183
field mean 3.2546639649442
field stddev 0.82781060062859
field sum 326062
field sqrsum 1129874
field min 2
field max 4
statistic Basic.rack[14].node[4].app 	throughput
field count 99654
field mean 49827.5
field stddev 28767.776200117
field sum 4965509685
field sqrsum 3.2989025660256e+014
field min 1
field max 99654
statistic Basic.rack[14].node[4].app 	"End-to-End Delay"
field count 99654
field mean 9.6926248738405e-006
field stddev 1.1640298031223e-005
field sum 0.96590883917771
field sqrsum 2.2864828567271e-005
field min 4e-007
field max 0.000103405742
statistic Basic.rack[14].node[4].app 	hops
field count 99654
field mean 3.2546410580609
field stddev 0.83081735571488
field sum 324338
field sqrsum 1124390
field min 2
field max 4
statistic Basic.rack[14].node[5].app 	throughput
field count 99965
field mean 49983
field stddev 28857.554166977
field sum 4996550595
field sqrsum 3.3298845233632e+014
field min 1
field max 99965
statistic Basic.rack[14].node[5].app 	"End-to-End Delay"
field count 99965
field mean 9.6791963614136e-006
field stddev 1.1611237687953e-005
field sum 0.96758086426872
field sqrsum 2.2842635695154e-005
field min 4e-007
field max 0.000108446254
statistic Basic.rack[14].node[5].app 	hops
field count 99965
field mean 3.2493672785475
field stddev 0.82856796568431
field sum 324823
field sqrsum 1124097
field min 2
field max 4
statistic Basic.rack[14].node[6].app 	throughput
field count 100212
field mean 50106.5
field stddev 28928.856925223
field sum 5021272578
field sqrsum 3.3546285214855e+014
field min 1
field max 100212
statistic Basic.rack[14].node[6].app 	"End-to-End Delay"
field count 100212
field mean 9.6072138990212e-006
field stddev 1.1564107339304e-005
field sum 0.96275811924872
field sqrsum 2.2650497770211e-005
field min 4e-007
field max 0.000128752273
statistic Basic.rack[14].node[6].app 	hops
field count 100212
field mean 3.2502694288109
field stddev 0.82991514352812
field sum 325716
field sqrsum 1127686
field min 2
field max 4
statistic Basic.rack[14].node[7].app 	throughput
field count 100314
field mean 50157.5
field stddev 28958.301788952
field sum 5031499455
field sqrsum 3.3648823471906e+014
field min 1
field max 100314
statistic Basic.rack[14].node[7].app 	"End-to-End Delay"
field count 100314
field mean 9.64258292582e-006
field stddev 1.1582405662397e-005
field sum 0.96728606362071
field sqrsum 2.2784337788136e-005
field min 4e-007
field max 0.000112448357
statistic Basic.rack[14].node[7].app 	hops
field count 100314
field mean 3.251420539506
field stddev 0.82989368060621
field sum 326163
field sqrsum 1129581
field min 2
field max 4
statistic Basic.rack[14].node[8].app 	throughput
field count 100102
field mean 50051.5
field stddev 28897.102660417
field sum 5010255253
field sqrsum 3.3435938430896e+014
field min 1
field max 100102
statistic Basic.rack[14].node[8].app 	"End-to-End Delay"
field count 100102
field mean 9.6724831594045e-006
field stddev 1.1634064736638e-005
field sum 0.96823490922271
field sqrsum 2.2914052581125e-005
field min 4e-007
field max 0.000132112516
statistic Basic.rack[14].node[8].app 	hops
field count 100102
field mean 3.2495354738167
field stddev 0.82850784214658
field sum 325285
field sqrsum 1125737
field min 2
field max 4
statistic Basic.rack[14].node[9].app 	throughput
field count 100143
field mean 50072
field stddev 28908.938340935
field sum 5014360296
field sqrsum 3.3477039353498e+014
field min 1
field max 100143
statistic Basic.rack[14].node[9].app 	"End-to-End Delay"
field count 100143
field mean 9.6261821331267e-006
field stddev 1.1613901147923e-005
field sum 0.96399475735771
field sqrsum 2.2787012440459e-005
field min 4e-007
field max 0.000118081273
statistic Basic.rack[14].node[9].app 	hops
field count 100143
field mean 3.2492535673986
field stddev 0.82946780114636
field sum 325390
field sqrsum 1126174
field min 2
field max 4
statistic Basic.rack[14].eps.queue[0] 	dropsum
field count 0
field mean nan
field stddev nan
field sum 0
field sqrsum 0
field min nan
field max nan
statistic Basic.rack[14].eps.queue[1] 	dropsum
field count 0
field mean nan
field stddev nan
field sum 0
field sqrsum 0
field min nan
field max nan
statistic Basic.rack[14].eps.queue[2] 	dropsum
field count 0
field mean nan
field stddev nan
field sum 0
field sqrsum 0
field min nan
field max nan
statistic Basic.rack[14].eps.queue[3] 	dropsum
field count 0
field mean nan
field stddev nan
field sum 0
field sqrsum 0
field min nan
field max nan
statistic Basic.rack[15].node[0].app 	throughput
field count 100244
field mean 50122.5
field stddev 28938.09452953
field sum 5024479890
field sqrsum 3.3578431622207e+014
field min 1
field max 100244
statistic Basic.rack[15].node[0].app 	"End-to-End Delay"
field count 100244
field mean 9.6596840439699e-006
field stddev 1.1589747253551e-005
field sum 0.96832536730372
field sqrsum 2.2818581544695e-005
field min 4e-007
field max 0.000101016115
statistic Basic.rack[15].node[0].app 	hops
field count 100244
field mean 3.2525338174853
field stddev 0.8295594094975
field sum 326047
field sqrsum 1129463
field min 2
field max 4
statistic Basic.rack[15].node[1].app 	throughput
field count 100299
field mean 50150
field stddev 28953.971661933
field sum 5029994850
field sqrsum 3.3633731230505e+014
field min 1
field max 100299
statistic Basic.rack[15].node[1].app 	"End-to-End Delay"
field count 100299
field mean 9.5341098103441e-006
field stddev 1.148612671418e-005
field sum 0.95626167986771
field sqrsum 2.2349530022558e-005
field min 4e-007
field max 0.00011606936
statistic Basic.rack[15].node[1].app 	hops
field count 100299
field mean 3.2474700645071
field stddev 0.82985135328468
field sum 325718
field sqrsum 1126830
field min 2
field max 4
statistic Basic.rack[15].node[2].app 	throughput
field count 100222
field mean 50111.5
field stddev 28931.743676569
field sum 5022274753
field sqrsum 3.355632876217e+014
field min 1
field max 100222
statistic Basic.rack[15].node[2].app 	"End-to-End Delay"
field count 100222
field mean 9.6079249328861e-006
field stddev 1.1556722463546e-005
field sum 0.96292545262371
field sqrsum 2.2637015156052e-005
field min 4e-007
field max 0.000119472378
statistic Basic.rack[15].node[2].app 	hops
field count 100222
field mean 3.2500648560196
field stddev 0.82993164029241
field sum 325728
field sqrsum 1127668
field min 2
field max 4
statistic Basic.rack[15].node[3].app 	throughput
field count 99777
field mean 49889
field stddev 28803.283241672
field sum 4977774753
field sqrsum 3.311132802783e+014
field min 1
field max 99777
statistic Basic.rack[15].node[3].app 	"End-to-End Delay"
field count 99777
field mean 9.599496183376e-006
field stddev 1.1561184196219e-005
field sum 0.95780893068871
field sqrsum 2.2530641116915e-005
field min 4e-007
field max 0.000104344925
statistic Basic.rack[15].node[3].app 	hops
field count 99777
field mean 3.2482034937912
field stddev 0.82861353454756
field sum 324096
field sqrsum 1121236
field min 2
field max 4
statistic Basic.rack[15].node[4].app 	throughput
field count 100302
field mean 50151.5
field stddev 28954.837687336
field sum 5030295753
field sqrsum 3.3636749317686e+014
field min 1
field max 100302
statistic Basic.rack[15].node[4].app 	"End-to-End Delay"
field count 100302
field mean 9.6846012022862e-006
field stddev 1.1624435899915e-005
field sum 0.97138486979171
field sqrsum 2.2960899457498e-005
field min 4e-007
field max 0.000105406817
statistic Basic.rack[15].node[4].app 	hops
field count 100302
field mean 3.2505234192738
field stddev 0.82940812782306
field sum 326034
field sqrsum 1128780
field min 2
field max 4
statistic Basic.rack[15].node[5].app 	throughput
field count 100624
field mean 50312.5
field stddev 29047.791080677
field sum 5062645000
field sqrsum 3.39617414535e+014
field min 1
field max 100624
statistic Basic.rack[15].node[5].app 	"End-to-End Delay"
field count 100624
field mean 9.5275211342296e-006
field stddev 1.1500300048767e-005
field sum 0.95869728661072
field sqrsum 2.2442094830135e-005
field min 4e-007
field max 0.000106016341
statistic Basic.rack[15].node[5].app 	hops
field count 100624
field mean 3.2439477659405
field stddev 0.83100295801906
field sum 326419
field sqrsum 1128373
field min 2
field max 4
statistic Basic.rack[15].node[6].app 	throughput
field count 99833
field mean 49917
field stddev 28819.44904921
field sum 4983363861
field sqrsum 3.3167110401143e+014
field min 1
field max 99833
statistic Basic.rack[15].node[6].app 	"End-to-End Delay"
field count 99833
field mean 9.5658719495728e-006
field stddev 1.1488666092357e-005
field sum 0.9549896943417
field sqrsum 2.2312079760039e-005
field min 4e-007
field max 0.000113165406
statistic Basic.rack[15].node[6].app 	hops
field count 99833
field mean 3.2505083489427
field stddev 0.82834359068445
field sum 324508
field sqrsum 1123316
field min 2
field max 4
statistic Basic.rack[15].node[7].app 	throughput
field count 99854
field mean 49927.5
field stddev 28825.511227036
field sum 4985460585
field sqrsum 3.3188044932326e+014
field min 1
field max 99854
statistic Basic.rack[15].node[7].app 	"End-to-End Delay"
field count 99854
field mean 9.5940655946954e-006
field stddev 1.1500376961856e-005
field sum 0.95800582589271
field sqrsum 2.2397595735664e-005
field min 4e-007
field max 0.000122940151
statistic Basic.rack[15].node[7].app 	hops
field count 99854
field mean 3.2532197007631
field stddev 0.8279559770779
field sum 324847
field sqrsum 1125249
field min 2
field max 4
statistic Basic.rack[15].node[8].app 	throughput
field count 100129
field mean 50065
field stddev 28904.896889051
field sum 5012958385
field sqrsum 3.346300110739e+014
field min 1
field max 100129
statistic Basic.rack[15].node[8].app 	"End-to-End Delay"
field count 100129
field mean 9.5924300203808e-006
field stddev 1.1510999764944e-005
field sum 0.96048042551071
field sqrsum 2.2480613225307e-005
field min 4e-007
field max 0.00011597157
statistic Basic.rack[15].node[8].app 	hops
field count 100129
field mean 3.2524443467926
field stddev 0.82825211165673
field sum 325664
field sqrsum 1127892
field min 2
field max 4
statistic Basic.rack[15].node[9].app 	throughput
field count 99815
field mean 49908
field stddev 28814.252896787
field sum 4981567020
field sqrsum 3.3149173525654e+014
field min 1
field max 99815
statistic Basic.rack[15].node[9].app 	"End-to-End Delay"
field count 99815
field mean 9.6442539683385e-006
field stddev 1.1572727123509e-005
field sum 0.9626412098497
field sqrsum 2.2651847005267e-005
field min 4e-007
field max 0.000109177107
statistic Basic.rack[15].node[9].app 	hops
field count 99815
field mean 3.2529279166458
field stddev 0.82891726444188
field sum 324691
field sqrsum 1124779
field min 2
field max 4
statistic Basic.rack[15].eps.queue[0] 	dropsum
field count 0
field mean nan
field stddev nan
field sum 0
field sqrsum 0
field min nan
field max nan
statistic Basic.rack[15].eps.queue[1] 	dropsum
field count 0
field mean nan
field stddev nan
field sum 0
field sqrsum 0
field min nan
field max nan
statistic Basic.rack[15].eps.queue[2] 	dropsum
field count 0
field mean nan
field stddev nan
field sum 0
field sqrsum 0
field min nan
field max nan
statistic Basic.rack[15].eps.queue[3] 	dropsum
field count 0
field mean nan
field stddev nan
field sum 0
field sqrsum 0
field min nan
field max nan
