version 2
run Basic-21-20180510-16:20:04-14564
attr configname Basic
attr datetime 20180510-16:20:04
attr experiment Basic
attr inifile omnetpp.ini
attr iterationvars "$0=exponential(0.25 ms), $1=5, $2=3"
attr iterationvarsf exponential(0.25_ms),5,3-
attr measurement "$0=exponential(0.25 ms), $1=5, $2=3"
attr network Networks.Basic
attr processid 14564
attr repetition 0
attr replication #0
attr resultdir results
attr runnumber 21
attr seedset 21
param **.frameCapacity 50
param **.packetLength "1024 bytes"
param **.pattern 5
param **.sendIaTime "exponential(0.25 ms)"
param **.tp 3

statistic Basic.rack[0].node[0].app 	throughput
field count 40048
field mean 20024.5
field stddev 11561.006126919
field sum 801941176
field sqrsum 21411027458024
field min 1
field max 40048
statistic Basic.rack[0].node[0].app 	"End-to-End Delay"
field count 40048
field mean 1.0321121732943e-005
field stddev 2.8003098663404e-006
field sum 0.41334028316091
field sqrsum 4.5801733550952e-006
field min 8.992e-006
field max 4.8324525e-005
statistic Basic.rack[0].node[0].app 	hops
field count 40048
field mean 4.005793048342
field stddev 0.99999570519697
field sum 160424
field sqrsum 682672
field min 3
field max 5
statistic Basic.rack[0].node[1].app 	throughput
field count 39755
field mean 19878
field stddev 11476.424312476
field sum 790249890
field sqrsum 20944519667930
field min 1
field max 39755
statistic Basic.rack[0].node[1].app 	"End-to-End Delay"
field count 39755
field mean 1.0318857343552e-005
field stddev 2.8097351173287e-006
field sum 0.41022617369292
field sqrsum 4.5469077476988e-006
field min 8.992e-006
field max 4.3615056e-005
statistic Basic.rack[0].node[1].app 	hops
field count 39755
field mean 3.9945415670985
field stddev 0.99999767972841
field sum 158803
field sqrsum 674099
field min 3
field max 5
statistic Basic.rack[0].node[2].app 	throughput
field count 40254
field mean 20127.5
field stddev 11620.47320465
field sum 810212385
field sqrsum 21743129634655
field min 1
field max 40254
statistic Basic.rack[0].node[2].app 	"End-to-End Delay"
field count 40254
field mean 1.0300468711728e-005
field stddev 2.7471734501525e-006
field sum 0.41463506752191
field sqrsum 4.5747233997809e-006
field min 8.992e-006
field max 3.724913e-005
statistic Basic.rack[0].node[2].app 	hops
field count 40254
field mean 3.9961742932379
field stddev 1.0000051032235
field sum 160862
field sqrsum 683086
field min 3
field max 5
statistic Basic.rack[0].node[3].app 	throughput
field count 39979
field mean 19990
field stddev 11541.087542631
field sum 799180210
field sqrsum 21300550137130
field min 1
field max 39979
statistic Basic.rack[0].node[3].app 	"End-to-End Delay"
field count 39979
field mean 1.0309725194975e-005
field stddev 2.7826675495589e-006
field sum 0.41217250356991
field sqrsum 4.5589444411342e-006
field min 8.992e-006
field max 4.7670296e-005
statistic Basic.rack[0].node[3].app 	hops
field count 39979
field mean 4.0008754596163
field stddev 1.0000121235809
field sum 159951
field sqrsum 679923
field min 3
field max 5
statistic Basic.rack[0].node[4].app 	throughput
field count 39764
field mean 19882.5
field stddev 11479.022388688
field sum 790607730
field sqrsum 20958747386390
field min 1
field max 39764
statistic Basic.rack[0].node[4].app 	"End-to-End Delay"
field count 39764
field mean 1.0301942994012e-005
field stddev 2.732417843663e-006
field sum 0.40964646121391
field sqrsum 4.5170293145958e-006
field min 8.992e-006
field max 4.6445576e-005
statistic Basic.rack[0].node[4].app 	hops
field count 39764
field mean 4.0037722563122
field stddev 1.0000054593513
field sum 159206
field sqrsum 677188
field min 3
field max 5
statistic Basic.rack[0].node[5].app 	throughput
field count 40016
field mean 20008.5
field stddev 11551.768522612
field sum 800660136
field sqrsum 21359744221496
field min 1
field max 40016
statistic Basic.rack[0].node[5].app 	"End-to-End Delay"
field count 40016
field mean 1.0313303175278e-005
field stddev 2.7908987390139e-006
field sum 0.41269713986191
field sqrsum 4.5679521905596e-006
field min 8.992e-006
field max 5.545977e-005
statistic Basic.rack[0].node[5].app 	hops
field count 40016
field mean 3.9981007596961
field stddev 1.0000106916552
field sum 159988
field sqrsum 679664
field min 3
field max 5
statistic Basic.rack[0].node[6].app 	throughput
field count 39771
field mean 19886
field stddev 11481.04311463
field sum 790886106
field sqrsum 20969817843186
field min 1
field max 39771
statistic Basic.rack[0].node[6].app 	"End-to-End Delay"
field count 39771
field mean 1.0327289553064e-005
field stddev 2.7919365988902e-006
field sum 0.41072663281491
field sqrsum 4.55169643383e-006
field min 8.992e-006
field max 4.4871854e-005
statistic Basic.rack[0].node[6].app 	hops
field count 39771
field mean 4.0012823414045
field stddev 1.0000117500012
field sum 159135
field sqrsum 676515
field min 3
field max 5
statistic Basic.rack[0].node[7].app 	throughput
field count 40005
field mean 20003
field stddev 11548.593096131
field sum 800220015
field sqrsum 21342134540055
field min 1
field max 40005
statistic Basic.rack[0].node[7].app 	"End-to-End Delay"
field count 40005
field mean 1.0337773130506e-005
field stddev 2.8217099641093e-006
field sum 0.41356261408591
field sqrsum 4.59383021273e-006
field min 8.992e-006
field max 4.4439773e-005
statistic Basic.rack[0].node[7].app 	hops
field count 40005
field mean 3.9953755780527
field stddev 1.000001805842
field sum 159835
field sqrsum 678605
field min 3
field max 5
statistic Basic.rack[0].node[8].app 	throughput
field count 39746
field mean 19873.5
field stddev 11473.826236265
field sum 789892131
field sqrsum 20930298389861
field min 1
field max 39746
statistic Basic.rack[0].node[8].app 	"End-to-End Delay"
field count 39746
field mean 1.0292284176594e-005
field stddev 2.7612509674498e-006
field sum 0.40907712688292
field sqrsum 4.5133740669725e-006
field min 8.992e-006
field max 4.408467e-005
statistic Basic.rack[0].node[8].app 	hops
field count 39746
field mean 4.0047803552559
field stddev 1.0000011540124
field sum 159174
field sqrsum 677202
field min 3
field max 5
statistic Basic.rack[0].node[9].app 	throughput
field count 40188
field mean 20094.5
field stddev 11601.420645766
field sum 807557766
field sqrsum 21636356852594
field min 1
field max 40188
statistic Basic.rack[0].node[9].app 	"End-to-End Delay"
field count 40188
field mean 1.0310234469267e-005
field stddev 2.7616941631456e-006
field sum 0.41434770285091
field sqrsum 4.5785263947449e-006
field min 8.992e-006
field max 4.4375402e-005
statistic Basic.rack[0].node[9].app 	hops
field count 40188
field mean 4.0012441524833
field stddev 1.0000116677894
field sum 160802
field sqrsum 683596
field min 3
field max 5
statistic Basic.rack[0].eps.queue[0] 	dropsum
field count 0
field mean nan
field stddev nan
field sum 0
field sqrsum 0
field min nan
field max nan
statistic Basic.rack[0].eps.queue[1] 	dropsum
field count 0
field mean nan
field stddev nan
field sum 0
field sqrsum 0
field min nan
field max nan
statistic Basic.rack[0].eps.queue[2] 	dropsum
field count 0
field mean nan
field stddev nan
field sum 0
field sqrsum 0
field min nan
field max nan
statistic Basic.rack[0].eps.queue[3] 	dropsum
field count 0
field mean nan
field stddev nan
field sum 0
field sqrsum 0
field min nan
field max nan
statistic Basic.rack[1].node[0].app 	throughput
field count 40144
field mean 20072.5
field stddev 11588.718939843
field sum 805790440
field sqrsum 21565369545720
field min 1
field max 40144
statistic Basic.rack[1].node[0].app 	"End-to-End Delay"
field count 40144
field mean 1.0327672927135e-005
field stddev 2.8302059714643e-006
field sum 0.41459410198691
field sqrsum 4.6033403558918e-006
field min 8.992e-006
field max 4.2504144e-005
statistic Basic.rack[1].node[0].app 	hops
field count 40144
field mean 3.9971602231965
field stddev 1.0000084231696
field sum 160462
field sqrsum 681536
field min 3
field max 5
statistic Basic.rack[1].node[1].app 	throughput
field count 40072
field mean 20036.5
field stddev 11567.93433015
field sum 802902628
field sqrsum 21449543707020
field min 1
field max 40072
statistic Basic.rack[1].node[1].app 	"End-to-End Delay"
field count 40072
field mean 1.0289578084221e-005
field stddev 2.7431031345367e-006
field sum 0.41232397299091
field sqrsum 4.5441585560058e-006
field min 8.992e-006
field max 4.2936943e-005
statistic Basic.rack[1].node[1].app 	hops
field count 40072
field mean 3.9861748852066
field stddev 0.99991690511497
field sum 159734
field sqrsum 676792
field min 3
field max 5
statistic Basic.rack[1].node[2].app 	throughput
field count 40463
field mean 20232
field stddev 11680.806307785
field sum 818647416
field sqrsum 22083559811544
field min 1
field max 40463
statistic Basic.rack[1].node[2].app 	"End-to-End Delay"
field count 40463
field mean 1.0324563983168e-005
field stddev 2.7830804634043e-006
field sum 0.41776283245091
field sqrsum 4.626619006092e-006
field min 8.992e-006
field max 3.9414238e-005
statistic Basic.rack[1].node[2].app 	hops
field count 40463
field mean 4.0007661320218
field stddev 1.0000120637143
field sum 161883
field sqrsum 688119
field min 3
field max 5
statistic Basic.rack[1].node[3].app 	throughput
field count 39828
field mean 19914.5
field stddev 11497.497597304
field sum 793154706
field sqrsum 21060108138614
field min 1
field max 39828
statistic Basic.rack[1].node[3].app 	"End-to-End Delay"
field count 39828
field mean 1.0296220344906e-005
field stddev 2.7525586173776e-006
field sum 0.41007786389691
field sqrsum 4.524004454778e-006
field min 8.992e-006
field max 4.2452083e-005
statistic Basic.rack[1].node[3].app 	hops
field count 39828
field mean 3.9950788390077
field stddev 1.0000004450804
field sum 159116
field sqrsum 675508
field min 3
field max 5
statistic Basic.rack[1].node[4].app 	throughput
field count 40102
field mean 20051.5
field stddev 11576.594584189
field sum 804105253
field sqrsum 21497753938955
field min 1
field max 40102
statistic Basic.rack[1].node[4].app 	"End-to-End Delay"
field count 40102
field mean 1.0288292717792e-005
field stddev 2.7027716259565e-006
field sum 0.41258111456891
field sqrsum 4.5376920574217e-006
field min 8.992e-006
field max 3.5564563e-005
statistic Basic.rack[1].node[4].app 	hops
field count 40102
field mean 3.9991521619869
field stddev 1.0000121090201
field sum 160374
field sqrsum 681462
field min 3
field max 5
statistic Basic.rack[1].node[5].app 	throughput
field count 40069
field mean 20035
field stddev 11567.068304746
field sum 802782415
field sqrsum 21444726651895
field min 1
field max 40069
statistic Basic.rack[1].node[5].app 	"End-to-End Delay"
field count 40069
field mean 1.0307239597866e-005
field stddev 2.7656686970166e-006
field sum 0.41300078344691
field sqrsum 4.5633750895474e-006
field min 8.992e-006
field max 5.7947874e-005
statistic Basic.rack[1].node[5].app 	hops
field count 40069
field mean 3.987546482318
field stddev 0.99993492968233
field sum 159777
field sqrsum 677181
field min 3
field max 5
statistic Basic.rack[1].node[6].app 	throughput
field count 39913
field mean 19957
field stddev 11522.034983746
field sum 796543741
field sqrsum 21195232404269
field min 1
field max 39913
statistic Basic.rack[1].node[6].app 	"End-to-End Delay"
field count 39913
field mean 1.032585848618e-005
field stddev 2.8223471040373e-006
field sum 0.41213598975891
field sqrsum 4.5735826577396e-006
field min 8.992e-006
field max 5.2213805e-005
statistic Basic.rack[1].node[6].app 	hops
field count 39913
field mean 3.9966677523614
field stddev 1.00000697546
field sum 159519
field sqrsum 677457
field min 3
field max 5
statistic Basic.rack[1].node[7].app 	throughput
field count 40084
field mean 20042.5
field stddev 11571.398431766
field sum 803383570
field sqrsum 21468819141110
field min 1
field max 40084
statistic Basic.rack[1].node[7].app 	"End-to-End Delay"
field count 40084
field mean 1.032426788227e-005
field stddev 2.8186989464399e-006
field sum 0.41383795379291
field sqrsum 4.5910358851262e-006
field min 8.992e-006
field max 4.2257196e-005
statistic Basic.rack[1].node[7].app 	hops
field count 40084
field mean 3.9918171839138
field stddev 0.99997899382078
field sum 160008
field sqrsum 678804
field min 3
field max 5
statistic Basic.rack[1].node[8].app 	throughput
field count 39746
field mean 19873.5
field stddev 11473.826236265
field sum 789892131
field sqrsum 20930298389861
field min 1
field max 39746
statistic Basic.rack[1].node[8].app 	"End-to-End Delay"
field count 39746
field mean 1.0304208472523e-005
field stddev 2.7417336943477e-006
field sum 0.40955106994891
field sqrsum 4.5188668894966e-006
field min 8.992e-006
field max 4.0364038e-005
statistic Basic.rack[1].node[8].app 	hops
field count 39746
field mean 4.0092084738087
field stddev 0.99997018069248
field sum 159350
field sqrsum 678610
field min 3
field max 5
statistic Basic.rack[1].node[9].app 	throughput
field count 39774
field mean 19887.5
field stddev 11481.909140034
field sum 791005425
field sqrsum 20974563517775
field min 1
field max 39774
statistic Basic.rack[1].node[9].app 	"End-to-End Delay"
field count 39774
field mean 1.0321943832577e-005
field stddev 2.7753510106175e-006
field sum 0.41054499399691
field sqrsum 4.5439768139435e-006
field min 8.992e-006
field max 4.3271107e-005
statistic Basic.rack[1].node[9].app 	hops
field count 39774
field mean 4.0066375018857
field stddev 0.99999054252816
field sum 159360
field sqrsum 678270
field min 3
field max 5
statistic Basic.rack[1].eps.queue[0] 	dropsum
field count 0
field mean nan
field stddev nan
field sum 0
field sqrsum 0
field min nan
field max nan
statistic Basic.rack[1].eps.queue[1] 	dropsum
field count 0
field mean nan
field stddev nan
field sum 0
field sqrsum 0
field min nan
field max nan
statistic Basic.rack[1].eps.queue[2] 	dropsum
field count 0
field mean nan
field stddev nan
field sum 0
field sqrsum 0
field min nan
field max nan
statistic Basic.rack[1].eps.queue[3] 	dropsum
field count 0
field mean nan
field stddev nan
field sum 0
field sqrsum 0
field min nan
field max nan
statistic Basic.rack[2].node[0].app 	throughput
field count 40034
field mean 20017.5
field stddev 11556.964675035
field sum 801380595
field sqrsum 21388580953685
field min 1
field max 40034
statistic Basic.rack[2].node[0].app 	"End-to-End Delay"
field count 40034
field mean 7.6806065776587e-006
field stddev 4.3433895313627e-006
field sum 0.30748540372999
field sqrsum 3.1168982653451e-006
field min 8.496e-007
field max 4.1388763e-005
statistic Basic.rack[2].node[0].app 	hops
field count 40034
field mean 4.2486886146775
field stddev 0.82926718520245
field sum 170092
field sqrsum 750198
field min 3
field max 5
statistic Basic.rack[2].node[1].app 	throughput
field count 39765
field mean 19883
field stddev 11479.311063823
field sum 790647495
field sqrsum 20960328641615
field min 1
field max 39765
statistic Basic.rack[2].node[1].app 	"End-to-End Delay"
field count 39765
field mean 7.6543649529482e-006
field stddev 4.3220079248577e-006
field sum 0.30437582235399
field sqrsum 3.0725853056618e-006
field min 8.496e-007
field max 3.6708167e-005
statistic Basic.rack[2].node[1].app 	hops
field count 39765
field mean 4.2475292342512
field stddev 0.82895629441857
field sum 168903
field sqrsum 744745
field min 3
field max 5
statistic Basic.rack[2].node[2].app 	throughput
field count 40035
field mean 20018
field stddev 11557.253350169
field sum 801420630
field sqrsum 21390183754910
field min 1
field max 40035
statistic Basic.rack[2].node[2].app 	"End-to-End Delay"
field count 40035
field mean 7.6532937672782e-006
field stddev 4.3474621685628e-006
field sum 0.30639961597298
field sqrsum 3.1016259780343e-006
field min 8.496e-007
field max 3.4754818e-005
statistic Basic.rack[2].node[2].app 	hops
field count 40035
field mean 4.2479080804296
field stddev 0.82784677133399
field sum 170065
field sqrsum 749857
field min 3
field max 5
statistic Basic.rack[2].node[3].app 	throughput
field count 39974
field mean 19987.5
field stddev 11539.644166958
field sum 798980325
field sqrsum 21292559334475
field min 1
field max 39974
statistic Basic.rack[2].node[3].app 	"End-to-End Delay"
field count 39974
field mean 7.6858585546352e-006
field stddev 4.3174807885136e-006
field sum 0.30723450986299
field sqrsum 3.1064833029873e-006
field min 8.496e-007
field max 3.6499986e-005
statistic Basic.rack[2].node[3].app 	hops
field count 39974
field mean 4.2529394106169
field stddev 0.82897653881162
field sum 170007
field sqrsum 750499
field min 3
field max 5
statistic Basic.rack[2].node[4].app 	throughput
field count 39922
field mean 19961.5
field stddev 11524.633059958
field sum 796903003
field sqrsum 21209573424845
field min 1
field max 39922
statistic Basic.rack[2].node[4].app 	"End-to-End Delay"
field count 39922
field mean 7.6747789076696e-006
field stddev 4.3421884815832e-006
field sum 0.30639252355199
field sqrsum 3.1041893961442e-006
field min 8.496e-007
field max 3.5451598e-005
statistic Basic.rack[2].node[4].app 	hops
field count 39922
field mean 4.2485596913982
field stddev 0.82901804239277
field sum 169611
field sqrsum 748039
field min 3
field max 5
statistic Basic.rack[2].node[5].app 	throughput
field count 39813
field mean 19907
field stddev 11493.167470284
field sum 792557391
field sqrsum 21036322457719
field min 1
field max 39813
statistic Basic.rack[2].node[5].app 	"End-to-End Delay"
field count 39813
field mean 7.6549963810058e-006
field stddev 4.2945688027901e-006
field sum 0.30476837091698
field sqrsum 3.0672662801045e-006
field min 8.496e-007
field max 3.0578658e-005
statistic Basic.rack[2].node[5].app 	hops
field count 39813
field mean 4.2450707055484
field stddev 0.83083722441186
field sum 169009
field sqrsum 744937
field min 3
field max 5
statistic Basic.rack[2].node[6].app 	throughput
field count 40061
field mean 20031
field stddev 11564.758903669
field sum 802461891
field sqrsum 21431884697531
field min 1
field max 40061
statistic Basic.rack[2].node[6].app 	"End-to-End Delay"
field count 40061
field mean 7.6639110967771e-006
field stddev 4.3432062300406e-006
field sum 0.30702394244799
field sqrsum 3.1086736201913e-006
field min 8.496e-007
field max 3.4932626e-005
statistic Basic.rack[2].node[6].app 	hops
field count 40061
field mean 4.2489203963955
field stddev 0.82841097774988
field sum 170216
field sqrsum 750726
field min 3
field max 5
statistic Basic.rack[2].node[7].app 	throughput
field count 39945
field mean 19973
field stddev 11531.272588054
field sum 797821485
field sqrsum 21246252086045
field min 1
field max 39945
statistic Basic.rack[2].node[7].app 	"End-to-End Delay"
field count 39945
field mean 7.6788938851417e-006
field stddev 4.2875620346743e-006
field sum 0.30673341624199
field sqrsum 3.0896714238571e-006
field min 8.496e-007
field max 3.2667079e-005
statistic Basic.rack[2].node[7].app 	hops
field count 39945
field mean 4.2513205657779
field stddev 0.8301594133153
field sum 169819
field sqrsum 749483
field min 3
field max 5
statistic Basic.rack[2].node[8].app 	throughput
field count 39965
field mean 19983
field stddev 11537.046090746
field sum 798620595
field sqrsum 21278180926315
field min 1
field max 39965
statistic Basic.rack[2].node[8].app 	"End-to-End Delay"
field count 39965
field mean 7.6657278417862e-006
field stddev 4.3174522658923e-006
field sum 0.30636081319698
field sqrsum 3.0934233239003e-006
field min 8.496e-007
field max 3.391129e-005
statistic Basic.rack[2].node[8].app 	hops
field count 39965
field mean 4.2524458901539
field stddev 0.82823258064557
field sum 169949
field sqrsum 750113
field min 3
field max 5
statistic Basic.rack[2].node[9].app 	throughput
field count 40461
field mean 20231
field stddev 11680.228957516
field sum 818566491
field sqrsum 22080285383731
field min 1
field max 40461
statistic Basic.rack[2].node[9].app 	"End-to-End Delay"
field count 40461
field mean 7.6552006308046e-006
field stddev 4.3165314002164e-006
field sum 0.30973707272298
field sqrsum 3.1249680915861e-006
field min 8.496e-007
field max 3.6479538e-005
statistic Basic.rack[2].node[9].app 	hops
field count 40461
field mean 4.2427028496577
field stddev 0.83085960430465
field sum 171664
field sqrsum 756250
field min 3
field max 5
statistic Basic.rack[2].eps.queue[0] 	dropsum
field count 0
field mean nan
field stddev nan
field sum 0
field sqrsum 0
field min nan
field max nan
statistic Basic.rack[2].eps.queue[1] 	dropsum
field count 0
field mean nan
field stddev nan
field sum 0
field sqrsum 0
field min nan
field max nan
statistic Basic.rack[2].eps.queue[2] 	dropsum
field count 0
field mean nan
field stddev nan
field sum 0
field sqrsum 0
field min nan
field max nan
statistic Basic.rack[2].eps.queue[3] 	dropsum
field count 0
field mean nan
field stddev nan
field sum 0
field sqrsum 0
field min nan
field max nan
statistic Basic.rack[3].node[0].app 	throughput
field count 39757
field mean 19879
field stddev 11477.001662746
field sum 790329403
field sqrsum 20947680826515
field min 1
field max 39757
statistic Basic.rack[3].node[0].app 	"End-to-End Delay"
field count 39757
field mean 7.658115254546e-006
field stddev 4.3376238179348e-006
field sum 0.30446368817499
field sqrsum 3.0796263750906e-006
field min 8.496e-007
field max 3.3192014e-005
statistic Basic.rack[3].node[0].app 	hops
field count 39757
field mean 4.2490379052745
field stddev 0.82807895305163
field sum 168929
field sqrsum 745047
field min 3
field max 5
statistic Basic.rack[3].node[1].app 	throughput
field count 39912
field mean 19956.5
field stddev 11521.746308611
field sum 796503828
field sqrsum 21193639356700
field min 1
field max 39912
statistic Basic.rack[3].node[1].app 	"End-to-End Delay"
field count 39912
field mean 7.6623306489524e-006
field stddev 4.2933063089335e-006
field sum 0.30581894086099
field sqrsum 3.0789445154459e-006
field min 8.496e-007
field max 3.1444294e-005
statistic Basic.rack[3].node[1].app 	hops
field count 39912
field mean 4.2476197634797
field stddev 0.83010694761261
field sum 169531
field sqrsum 747605
field min 3
field max 5
statistic Basic.rack[3].node[2].app 	throughput
field count 40091
field mean 20046
field stddev 11573.419157708
field sum 803664186
field sqrsum 21480068475346
field min 1
field max 40091
statistic Basic.rack[3].node[2].app 	"End-to-End Delay"
field count 40091
field mean 7.6685150235211e-006
field stddev 4.3358236426365e-006
field sum 0.30743843580798
field sqrsum 3.1112628732026e-006
field min 8.496e-007
field max 4.458119e-005
statistic Basic.rack[3].node[2].app 	hops
field count 40091
field mean 4.2561672195755
field stddev 0.82658440124777
field sum 170634
field sqrsum 753638
field min 3
field max 5
statistic Basic.rack[3].node[3].app 	throughput
field count 40154
field mean 20077.5
field stddev 11591.605691189
field sum 806191935
field sqrsum 21581489369305
field min 1
field max 40154
statistic Basic.rack[3].node[3].app 	"End-to-End Delay"
field count 40154
field mean 7.6580703270654e-006
field stddev 4.3095760116554e-006
field sum 0.30750215591298
field sqrsum 3.1006125358615e-006
field min 8.496e-007
field max 3.1728653e-005
statistic Basic.rack[3].node[3].app 	hops
field count 40154
field mean 4.2454051900184
field stddev 0.83021564639214
field sum 170470
field sqrsum 751390
field min 3
field max 5
statistic Basic.rack[3].node[4].app 	throughput
field count 39669
field mean 19835
field stddev 11451.598250899
field sum 786834615
field sqrsum 20808890506495
field min 1
field max 39669
statistic Basic.rack[3].node[4].app 	"End-to-End Delay"
field count 39669
field mean 7.6720024870802e-006
field stddev 4.2976346797836e-006
field sum 0.30434066665998
field sqrsum 3.067556976775e-006
field min 8.496e-007
field max 3.4991112e-005
statistic Basic.rack[3].node[4].app 	hops
field count 39669
field mean 4.2479518011546
field stddev 0.83051406191255
field sum 168512
field sqrsum 743192
field min 3
field max 5
statistic Basic.rack[3].node[5].app 	throughput
field count 40153
field mean 20077
field stddev 11591.317016054
field sum 806151781
field sqrsum 21579877025589
field min 1
field max 40153
statistic Basic.rack[3].node[5].app 	"End-to-End Delay"
field count 40153
field mean 7.639458089856e-006
field stddev 4.3278531438596e-006
field sum 0.30674716068199
field sqrsum 3.0954415991559e-006
field min 8.496e-007
field max 4.4806082e-005
statistic Basic.rack[3].node[5].app 	hops
field count 40153
field mean 4.2490722984584
field stddev 0.82764588278456
field sum 170613
field sqrsum 752451
field min 3
field max 5
statistic Basic.rack[3].node[6].app 	throughput
field count 40275
field mean 20138
field stddev 11626.535382477
field sum 811057950
field sqrsum 21777176310150
field min 1
field max 40275
statistic Basic.rack[3].node[6].app 	"End-to-End Delay"
field count 40275
field mean 7.6598262920915e-006
field stddev 4.3155189064048e-006
field sum 0.30849950391399
field sqrsum 3.1131036431793e-006
field min 8.496e-007
field max 3.1970128e-005
statistic Basic.rack[3].node[6].app 	hops
field count 40275
field mean 4.2500310366232
field stddev 0.82882391694245
field sum 171170
field sqrsum 755144
field min 3
field max 5
statistic Basic.rack[3].node[7].app 	throughput
field count 40061
field mean 20031
field stddev 11564.758903669
field sum 802461891
field sqrsum 21431884697531
field min 1
field max 40061
statistic Basic.rack[3].node[7].app 	"End-to-End Delay"
field count 40061
field mean 7.6787035289181e-006
field stddev 4.3168823078369e-006
field sum 0.30761654207199
field sqrsum 3.108633269922e-006
field min 8.496e-007
field max 3.8474977e-005
statistic Basic.rack[3].node[7].app 	hops
field count 40061
field mean 4.2481216145378
field stddev 0.83030576734503
field sum 170184
field sqrsum 750580
field min 3
field max 5
statistic Basic.rack[3].node[8].app 	throughput
field count 40005
field mean 20003
field stddev 11548.593096131
field sum 800220015
field sqrsum 21342134540055
field min 1
field max 40005
statistic Basic.rack[3].node[8].app 	"End-to-End Delay"
field count 40005
field mean 7.6749301955501e-006
field stddev 4.3507328235853e-006
field sum 0.30703558247298
field sqrsum 3.1137074226235e-006
field min 8.496e-007
field max 3.6950978e-005
statistic Basic.rack[3].node[8].app 	hops
field count 40005
field mean 4.2486189226347
field stddev 0.82877151173591
field sum 169966
field sqrsum 749598
field min 3
field max 5
statistic Basic.rack[3].node[9].app 	throughput
field count 39905
field mean 19953
field stddev 11519.725582669
field sum 796224465
field sqrsum 21182490258705
field min 1
field max 39905
statistic Basic.rack[3].node[9].app 	"End-to-End Delay"
field count 39905
field mean 7.6999284847509e-006
field stddev 4.3148538267219e-006
field sum 0.30726564618398
field sqrsum 3.1088547187761e-006
field min 8.496e-007
field max 3.4540819e-005
statistic Basic.rack[3].node[9].app 	hops
field count 39905
field mean 4.2506703420624
field stddev 0.83053845190754
field sum 169623
field sqrsum 748537
field min 3
field max 5
statistic Basic.rack[3].eps.queue[0] 	dropsum
field count 0
field mean nan
field stddev nan
field sum 0
field sqrsum 0
field min nan
field max nan
statistic Basic.rack[3].eps.queue[1] 	dropsum
field count 0
field mean nan
field stddev nan
field sum 0
field sqrsum 0
field min nan
field max nan
statistic Basic.rack[3].eps.queue[2] 	dropsum
field count 0
field mean nan
field stddev nan
field sum 0
field sqrsum 0
field min nan
field max nan
statistic Basic.rack[3].eps.queue[3] 	dropsum
field count 0
field mean nan
field stddev nan
field sum 0
field sqrsum 0
field min nan
field max nan
statistic Basic.rack[4].node[0].app 	throughput
field count 40252
field mean 20126.5
field stddev 11619.895854381
field sum 810131878
field sqrsum 21739888946130
field min 1
field max 40252
statistic Basic.rack[4].node[0].app 	"End-to-End Delay"
field count 40252
field mean 1.0280391126526e-005
field stddev 2.7348408219296e-006
field sum 0.41380630362491
field sqrsum 4.5551421426722e-006
field min 8.992e-006
field max 4.159217e-005
statistic Basic.rack[4].node[0].app 	hops
field count 40252
field mean 4.001341548246
field stddev 1.000011522087
field sum 161062
field sqrsum 684716
field min 3
field max 5
statistic Basic.rack[4].node[1].app 	throughput
field count 40103
field mean 20052
field stddev 11576.883259323
field sum 804145356
field sqrsum 21499362189564
field min 1
field max 40103
statistic Basic.rack[4].node[1].app 	"End-to-End Delay"
field count 40103
field mean 1.0290780348027e-005
field stddev 2.7491051329228e-006
field sum 0.41269116429691
field sqrsum 4.5499881576867e-006
field min 8.992e-006
field max 4.2091294e-005
statistic Basic.rack[4].node[1].app 	hops
field count 40103
field mean 4.0012717253073
field stddev 1.0000116594753
field sum 160463
field sqrsum 682159
field min 3
field max 5
statistic Basic.rack[4].node[2].app 	throughput
field count 40258
field mean 20129.5
field stddev 11621.627905189
field sum 810373411
field sqrsum 21749611977829
field min 1
field max 40258
statistic Basic.rack[4].node[2].app 	"End-to-End Delay"
field count 40258
field mean 1.0315161087632e-005
field stddev 2.7381875736535e-006
field sum 0.41526775506591
field sqrsum 4.5853875370402e-006
field min 8.992e-006
field max 3.9332731e-005
statistic Basic.rack[4].node[2].app 	hops
field count 40258
field mean 4.0039246857767
field stddev 1.0000047184185
field sum 161190
field sqrsum 685650
field min 3
field max 5
statistic Basic.rack[4].node[3].app 	throughput
field count 40021
field mean 20011
field stddev 11553.211898285
field sum 800860231
field sqrsum 21367751823311
field min 1
field max 40021
statistic Basic.rack[4].node[3].app 	"End-to-End Delay"
field count 40021
field mean 1.032529068129e-005
field stddev 2.797311753514e-006
field sum 0.41322845835592
field sqrsum 4.5798585712211e-006
field min 8.992e-006
field max 4.2888352e-005
statistic Basic.rack[4].node[3].app 	hops
field count 40021
field mean 3.9939281877015
field stddev 0.99999405982258
field sum 159841
field sqrsum 678413
field min 3
field max 5
statistic Basic.rack[4].node[4].app 	throughput
field count 39940
field mean 19970.5
field stddev 11529.829212381
field sum 797621770
field sqrsum 21238274869790
field min 1
field max 39940
statistic Basic.rack[4].node[4].app 	"End-to-End Delay"
field count 39940
field mean 1.0305694793814e-005
field stddev 2.7916427068137e-006
field sum 0.41160945006491
field sqrsum 4.5531767373095e-006
field min 8.992e-006
field max 4.6370684e-005
statistic Basic.rack[4].node[4].app 	hops
field count 39940
field mean 3.9942413620431
field stddev 0.99999593771265
field sum 159530
field sqrsum 677140
field min 3
field max 5
statistic Basic.rack[4].node[5].app 	throughput
field count 40066
field mean 20033.5
field stddev 11566.202279342
field sum 802662211
field sqrsum 21439910318021
field min 1
field max 40066
statistic Basic.rack[4].node[5].app 	"End-to-End Delay"
field count 40066
field mean 1.0304899226324e-005
field stddev 2.7636245164485e-006
field sum 0.41287609240191
field sqrsum 4.5606477892073e-006
field min 8.992e-006
field max 4.3238744e-005
statistic Basic.rack[4].node[5].app 	hops
field count 40066
field mean 4.0003993410872
field stddev 1.0000123999049
field sum 160280
field sqrsum 681250
field min 3
field max 5
statistic Basic.rack[4].node[6].app 	throughput
field count 40046
field mean 20023.5
field stddev 11560.42877665
field sum 801861081
field sqrsum 21407819853511
field min 1
field max 40046
statistic Basic.rack[4].node[6].app 	"End-to-End Delay"
field count 40046
field mean 1.0305164584501e-005
field stddev 2.7631024481781e-006
field sum 0.41268062095091
field sqrsum 4.5584746883794e-006
field min 8.992e-006
field max 4.1642896e-005
statistic Basic.rack[4].node[6].app 	hops
field count 40046
field mean 3.9936572941118
field stddev 0.9999923704629
field sum 159930
field sqrsum 678750
field min 3
field max 5
statistic Basic.rack[4].node[7].app 	throughput
field count 39751
field mean 19876
field stddev 11475.269611938
field sum 790090876
field sqrsum 20938198304876
field min 1
field max 39751
statistic Basic.rack[4].node[7].app 	"End-to-End Delay"
field count 39751
field mean 1.0323261711049e-005
field stddev 2.7604518327758e-006
field sum 0.41035997627591
field sqrsum 4.5391521800988e-006
field min 8.992e-006
field max 4.5335674e-005
statistic Basic.rack[4].node[7].app 	hops
field count 39751
field mean 4.0027923825816
field stddev 1.0000086797804
field sum 159115
field sqrsum 676655
field min 3
field max 5
statistic Basic.rack[4].node[8].app 	throughput
field count 39946
field mean 19973.5
field stddev 11531.561263188
field sum 797861431
field sqrsum 21247847768961
field min 1
field max 39946
statistic Basic.rack[4].node[8].app 	"End-to-End Delay"
field count 39946
field mean 1.0302951523229e-005
field stddev 2.7290619828271e-006
field sum 0.41156170154691
field sqrsum 4.5378018042382e-006
field min 8.992e-006
field max 4.9268604e-005
statistic Basic.rack[4].node[8].app 	hops
field count 39946
field mean 3.9990487157663
field stddev 1.0000120646562
field sum 159746
field sqrsum 678778
field min 3
field max 5
statistic Basic.rack[4].node[9].app 	throughput
field count 40025
field mean 20013
field stddev 11554.366598823
field sum 801020325
field sqrsum 21374159345525
field min 1
field max 40025
statistic Basic.rack[4].node[9].app 	"End-to-End Delay"
field count 40025
field mean 1.0325508525644e-005
field stddev 2.7928748539346e-006
field sum 0.41327847873891
field sqrsum 4.5795036572724e-006
field min 8.992e-006
field max 4.6183032e-005
statistic Basic.rack[4].node[9].app 	hops
field count 40025
field mean 3.9990755777639
field stddev 1.0000120651428
field sum 160063
field sqrsum 680129
field min 3
field max 5
statistic Basic.rack[4].eps.queue[0] 	dropsum
field count 0
field mean nan
field stddev nan
field sum 0
field sqrsum 0
field min nan
field max nan
statistic Basic.rack[4].eps.queue[1] 	dropsum
field count 0
field mean nan
field stddev nan
field sum 0
field sqrsum 0
field min nan
field max nan
statistic Basic.rack[4].eps.queue[2] 	dropsum
field count 0
field mean nan
field stddev nan
field sum 0
field sqrsum 0
field min nan
field max nan
statistic Basic.rack[4].eps.queue[3] 	dropsum
field count 0
field mean nan
field stddev nan
field sum 0
field sqrsum 0
field min nan
field max nan
statistic Basic.rack[5].node[0].app 	throughput
field count 39907
field mean 19954
field stddev 11520.302932938
field sum 796304278
field sqrsum 21185675316190
field min 1
field max 39907
statistic Basic.rack[5].node[0].app 	"End-to-End Delay"
field count 39907
field mean 1.0311921947801e-005
field stddev 2.7961360116914e-006
field sum 0.41151786917091
field sqrsum 4.5555402834511e-006
field min 8.992e-006
field max 4.5931862e-005
statistic Basic.rack[5].node[0].app 	hops
field count 39907
field mean 3.986192898489
field stddev 0.99991720560211
field sum 159077
field sqrsum 674011
field min 3
field max 5
statistic Basic.rack[5].node[1].app 	throughput
field count 40170
field mean 20085.5
field stddev 11596.224493343
field sum 806834535
field sqrsum 21607297792145
field min 1
field max 40170
statistic Basic.rack[5].node[1].app 	"End-to-End Delay"
field count 40170
field mean 1.0303086630394e-005
field stddev 2.7639857206581e-006
field sum 0.41387498994291
field sqrsum 4.5710656533789e-006
field min 8.992e-006
field max 4.277124e-005
statistic Basic.rack[5].node[1].app 	hops
field count 40170
field mean 4.0047796863331
field stddev 1.0000010244241
field sum 160872
field sqrsum 684426
field min 3
field max 5
statistic Basic.rack[5].node[2].app 	throughput
field count 39808
field mean 19904.5
field stddev 11491.724094611
field sum 792358336
field sqrsum 21028397879104
field min 1
field max 39808
statistic Basic.rack[5].node[2].app 	"End-to-End Delay"
field count 39808
field mean 1.0310588683956e-005
field stddev 2.7703130742011e-006
field sum 0.41044391433091
field sqrsum 4.5374225551983e-006
field min 8.992e-006
field max 4.8491031e-005
statistic Basic.rack[5].node[2].app 	hops
field count 39808
field mean 4.0095960610932
field stddev 0.99996651669347
field sum 159614
field sqrsum 679792
field min 3
field max 5
statistic Basic.rack[5].node[3].app 	throughput
field count 40056
field mean 20028.5
field stddev 11563.315527996
field sum 802261596
field sqrsum 21423861080116
field min 1
field max 40056
statistic Basic.rack[5].node[3].app 	"End-to-End Delay"
field count 40056
field mean 1.0310844879466e-005
field stddev 2.7753502914416e-006
field sum 0.41301120249191
field sqrsum 4.5670208532924e-006
field min 8.992e-006
field max 4.7432311e-005
statistic Basic.rack[5].node[3].app 	hops
field count 40056
field mean 3.9962552426603
field stddev 1.0000054710423
field sum 160074
field sqrsum 679752
field min 3
field max 5
statistic Basic.rack[5].node[4].app 	throughput
field count 39881
field mean 19941
field stddev 11512.797379438
field sum 795267021
field sqrsum 21144294465341
field min 1
field max 39881
statistic Basic.rack[5].node[4].app 	"End-to-End Delay"
field count 39881
field mean 1.0331157663572e-005
field stddev 2.8089997728576e-006
field sum 0.41201689878091
field sqrsum 4.5712838727512e-006
field min 8.992e-006
field max 5.0111762e-005
statistic Basic.rack[5].node[4].app 	hops
field count 39881
field mean 4.0021313407387
field stddev 1.0000102661965
field sum 159609
field sqrsum 678657
field min 3
field max 5
statistic Basic.rack[5].node[5].app 	throughput
field count 39923
field mean 19962
field stddev 11524.921735092
field sum 796942926
field sqrsum 21211167270774
field min 1
field max 39923
statistic Basic.rack[5].node[5].app 	"End-to-End Delay"
field count 39923
field mean 1.0312144205343e-005
field stddev 2.772739460929e-006
field sum 0.41169173310991
field sqrsum 4.5523482141434e-006
field min 8.992e-006
field max 3.908308e-005
statistic Basic.rack[5].node[5].app 	hops
field count 39923
field mean 4.0027302557423
field stddev 1.0000087971424
field sum 159801
field sqrsum 679563
field min 3
field max 5
statistic Basic.rack[5].node[6].app 	throughput
field count 40165
field mean 20083
field stddev 11594.78111767
field sum 806633695
field sqrsum 21599230451015
field min 1
field max 40165
statistic Basic.rack[5].node[6].app 	"End-to-End Delay"
field count 40165
field mean 1.0340499958768e-005
field stddev 2.7955281337625e-006
field sum 0.41532618084391
field sqrsum 4.6085611140756e-006
field min 8.992e-006
field max 3.8328956e-005
statistic Basic.rack[5].node[6].app 	hops
field count 40165
field mean 4.0100336113532
field stddev 0.99996211030978
field sum 161063
field sqrsum 686029
field min 3
field max 5
statistic Basic.rack[5].node[7].app 	throughput
field count 39696
field mean 19848.5
field stddev 11459.392479534
field sum 787906056
field sqrsum 20851408501336
field min 1
field max 39696
statistic Basic.rack[5].node[7].app 	"End-to-End Delay"
field count 39696
field mean 1.0320553344617e-005
field stddev 2.7827450145811e-006
field sum 0.40968468556791
field sqrsum 4.5355576252294e-006
field min 8.992e-006
field max 4.3086698e-005
statistic Basic.rack[5].node[7].app 	hops
field count 39696
field mean 4.0038291011689
field stddev 1.0000052648384
field sum 158936
field sqrsum 676048
field min 3
field max 5
statistic Basic.rack[5].node[8].app 	throughput
field count 39889
field mean 19945
field stddev 11515.106780515
field sum 795586105
field sqrsum 21157021290265
field min 1
field max 39889
statistic Basic.rack[5].node[8].app 	"End-to-End Delay"
field count 39889
field mean 1.0334556197245e-005
field stddev 2.7894864791146e-006
field sum 0.41223511215191
field sqrsum 4.5706448273986e-006
field min 8.992e-006
field max 4.2362126e-005
statistic Basic.rack[5].node[8].app 	hops
field count 39889
field mean 3.9960139386798
field stddev 1.0000045905461
field sum 159397
field sqrsum 676841
field min 3
field max 5
statistic Basic.rack[5].node[9].app 	throughput
field count 40160
field mean 20080.5
field stddev 11593.337741996
field sum 806432880
field sqrsum 21591165118160
field min 1
field max 40160
statistic Basic.rack[5].node[9].app 	"End-to-End Delay"
field count 40160
field mean 1.030684242445e-005
field stddev 2.7833433148876e-006
field sum 0.41392279176591
field sqrsum 4.5773487639621e-006
field min 8.992e-006
field max 4.9633038e-005
statistic Basic.rack[5].node[9].app 	hops
field count 40160
field mean 4.0026394422311
field stddev 1.0000089670546
field sum 160746
field sqrsum 683568
field min 3
field max 5
statistic Basic.rack[5].eps.queue[0] 	dropsum
field count 0
field mean nan
field stddev nan
field sum 0
field sqrsum 0
field min nan
field max nan
statistic Basic.rack[5].eps.queue[1] 	dropsum
field count 0
field mean nan
field stddev nan
field sum 0
field sqrsum 0
field min nan
field max nan
statistic Basic.rack[5].eps.queue[2] 	dropsum
field count 0
field mean nan
field stddev nan
field sum 0
field sqrsum 0
field min nan
field max nan
statistic Basic.rack[5].eps.queue[3] 	dropsum
field count 0
field mean nan
field stddev nan
field sum 0
field sqrsum 0
field min nan
field max nan
statistic Basic.rack[6].node[0].app 	throughput
field count 39763
field mean 19882
field stddev 11478.733713553
field sum 790567966
field sqrsum 20957166210694
field min 1
field max 39763
statistic Basic.rack[6].node[0].app 	"End-to-End Delay"
field count 39763
field mean 7.6699020494174e-006
field stddev 4.3327043936277e-006
field sum 0.30497831519098
field sqrsum 3.0855790853013e-006
field min 8.496e-007
field max 3.9770021e-005
statistic Basic.rack[6].node[0].app 	hops
field count 39763
field mean 4.24412141941
field stddev 0.83035249858874
field sum 168759
field sqrsum 743649
field min 3
field max 5
statistic Basic.rack[6].node[1].app 	throughput
field count 40198
field mean 20099.5
field stddev 11604.307397112
field sum 807959701
field sqrsum 21652512027099
field min 1
field max 40198
statistic Basic.rack[6].node[1].app 	"End-to-End Delay"
field count 40198
field mean 7.6643781436884e-006
field stddev 4.2991581021387e-006
field sum 0.30809267261999
field sqrsum 3.1042902655428e-006
field min 8.496e-007
field max 3.200453e-005
statistic Basic.rack[6].node[1].app 	hops
field count 40198
field mean 4.2497139161152
field stddev 0.8294251973042
field sum 170830
field sqrsum 753632
field min 3
field max 5
statistic Basic.rack[6].node[2].app 	throughput
field count 39790
field mean 19895.5
field stddev 11486.527942188
field sum 791641945
field sqrsum 20999885875015
field min 1
field max 39790
statistic Basic.rack[6].node[2].app 	"End-to-End Delay"
field count 39790
field mean 7.6908206626788e-006
field stddev 4.3161886266155e-006
field sum 0.30601775416799
field sqrsum 3.0947762161438e-006
field min 8.496e-007
field max 3.8182503e-005
statistic Basic.rack[6].node[2].app 	hops
field count 39790
field mean 4.250540336768
field stddev 0.82988979213985
field sum 169129
field sqrsum 746293
field min 3
field max 5
statistic Basic.rack[6].node[3].app 	throughput
field count 40138
field mean 20069.5
field stddev 11586.986889035
field sum 805549591
field sqrsum 21555701505569
field min 1
field max 40138
statistic Basic.rack[6].node[3].app 	"End-to-End Delay"
field count 40138
field mean 7.666342682495e-006
field stddev 4.3270050298485e-006
field sum 0.30771166258998
field sqrsum 3.1105070011849e-006
field min 8.496e-007
field max 3.2761994e-005
statistic Basic.rack[6].node[3].app 	hops
field count 40138
field mean 4.2544969854004
field stddev 0.82706710451404
field sum 170767
field sqrsum 753983
field min 3
field max 5
statistic Basic.rack[6].node[4].app 	throughput
field count 39823
field mean 19912
field stddev 11496.05422163
field sum 792955576
field sqrsum 21052177587224
field min 1
field max 39823
statistic Basic.rack[6].node[4].app 	"End-to-End Delay"
field count 39823
field mean 7.6691421220648e-006
field stddev 4.3214379997799e-006
field sum 0.30540824672699
field sqrsum 3.0858881857409e-006
field min 8.496e-007
field max 3.4804732e-005
statistic Basic.rack[6].node[4].app 	hops
field count 39823
field mean 4.2460387213419
field stddev 0.83039226789208
field sum 169090
field sqrsum 745422
field min 3
field max 5
statistic Basic.rack[6].node[5].app 	throughput
field count 40061
field mean 20031
field stddev 11564.758903669
field sum 802461891
field sqrsum 21431884697531
field min 1
field max 40061
statistic Basic.rack[6].node[5].app 	"End-to-End Delay"
field count 40061
field mean 7.6275326639122e-006
field stddev 4.3562654639369e-006
field sum 0.30556658604899
field sqrsum 3.0909396907079e-006
field min 8.496e-007
field max 3.6043376e-005
statistic Basic.rack[6].node[5].app 	hops
field count 40061
field mean 4.2475225281446
field stddev 0.82659800923403
field sum 170160
field sqrsum 750130
field min 3
field max 5
statistic Basic.rack[6].node[6].app 	throughput
field count 39898
field mean 19949.5
field stddev 11517.704856727
field sum 795945151
field sqrsum 21171345071449
field min 1
field max 39898
statistic Basic.rack[6].node[6].app 	"End-to-End Delay"
field count 39898
field mean 7.6800889391445e-006
field stddev 4.2967535751153e-006
field sum 0.30642018849399
field sqrsum 3.0899163563915e-006
field min 8.496e-007
field max 3.0979367e-005
statistic Basic.rack[6].node[6].app 	hops
field count 39898
field mean 4.2481327384831
field stddev 0.83064059858688
field sum 169492
field sqrsum 747552
field min 3
field max 5
statistic Basic.rack[6].node[7].app 	throughput
field count 40260
field mean 20130.5
field stddev 11622.205255458
field sum 810453930
field sqrsum 21752853632510
field min 1
field max 40260
statistic Basic.rack[6].node[7].app 	"End-to-End Delay"
field count 40260
field mean 7.6768293660205e-006
field stddev 4.3161066052571e-006
field sum 0.30906915027598
field sqrsum 3.1226470311305e-006
field min 8.496e-007
field max 3.8373686e-005
statistic Basic.rack[6].node[7].app 	hops
field count 40260
field mean 4.2522354694486
field stddev 0.82866904551093
field sum 171195
field sqrsum 755607
field min 3
field max 5
statistic Basic.rack[6].node[8].app 	throughput
field count 39942
field mean 19971.5
field stddev 11530.40656265
field sum 797701653
field sqrsum 21241465516635
field min 1
field max 39942
statistic Basic.rack[6].node[8].app 	"End-to-End Delay"
field count 39942
field mean 7.6351146049519e-006
field stddev 4.3496858726645e-006
field sum 0.30496174755099
field sqrsum 3.0840923140482e-006
field min 8.496e-007
field max 3.3985999e-005
statistic Basic.rack[6].node[8].app 	hops
field count 39942
field mean 4.249411646888
field stddev 0.82646325724621
field sum 169730
field sqrsum 748534
field min 3
field max 5
statistic Basic.rack[6].node[9].app 	throughput
field count 39731
field mean 19866
field stddev 11469.496109246
field sum 789296046
field sqrsum 20906610567766
field min 1
field max 39731
statistic Basic.rack[6].node[9].app 	"End-to-End Delay"
field count 39731
field mean 7.6912106719435e-006
field stddev 4.3254561705182e-006
field sum 0.30557949120699
field sqrsum 3.0936075030288e-006
field min 8.496e-007
field max 3.2278684e-005
statistic Basic.rack[6].node[9].app 	hops
field count 39731
field mean 4.2535803277038
field stddev 0.82863699533168
field sum 168999
field sqrsum 746131
field min 3
field max 5
statistic Basic.rack[6].eps.queue[0] 	dropsum
field count 0
field mean nan
field stddev nan
field sum 0
field sqrsum 0
field min nan
field max nan
statistic Basic.rack[6].eps.queue[1] 	dropsum
field count 0
field mean nan
field stddev nan
field sum 0
field sqrsum 0
field min nan
field max nan
statistic Basic.rack[6].eps.queue[2] 	dropsum
field count 0
field mean nan
field stddev nan
field sum 0
field sqrsum 0
field min nan
field max nan
statistic Basic.rack[6].eps.queue[3] 	dropsum
field count 0
field mean nan
field stddev nan
field sum 0
field sqrsum 0
field min nan
field max nan
statistic Basic.rack[7].node[0].app 	throughput
field count 40399
field mean 20200
field stddev 11662.33109917
field sum 816059800
field sqrsum 21978938593400
field min 1
field max 40399
statistic Basic.rack[7].node[0].app 	"End-to-End Delay"
field count 40399
field mean 7.6660025993214e-006
field stddev 4.3477667543409e-006
field sum 0.30969883900999
field sqrsum 3.137798559012e-006
field min 8.496e-007
field max 4.294165e-005
statistic Basic.rack[7].node[0].app 	hops
field count 40399
field mean 4.2429763112948
field stddev 0.83001136766149
field sum 171412
field sqrsum 755128
field min 3
field max 5
statistic Basic.rack[7].node[1].app 	throughput
field count 39875
field mean 19938
field stddev 11511.065328631
field sum 795027750
field sqrsum 21134752696750
field min 1
field max 39875
statistic Basic.rack[7].node[1].app 	"End-to-End Delay"
field count 39875
field mean 7.6911725848022e-006
field stddev 4.3356497743472e-006
field sum 0.30668550681899
field sqrsum 3.1083169906045e-006
field min 8.496e-007
field max 3.1704563e-005
statistic Basic.rack[7].node[1].app 	hops
field count 39875
field mean 4.2526896551724
field stddev 0.82849844074141
field sum 169576
field sqrsum 748524
field min 3
field max 5
statistic Basic.rack[7].node[2].app 	throughput
field count 39854
field mean 19927.5
field stddev 11505.003150804
field sum 794190585
field sqrsum 21101379113255
field min 1
field max 39854
statistic Basic.rack[7].node[2].app 	"End-to-End Delay"
field count 39854
field mean 7.6919798446074e-006
field stddev 4.329673722444e-006
field sum 0.30655616472699
field sqrsum 3.1051111490752e-006
field min 8.496e-007
field max 3.7558376e-005
statistic Basic.rack[7].node[2].app 	hops
field count 39854
field mean 4.2517187735234
field stddev 0.82948629053504
field sum 169448
field sqrsum 747866
field min 3
field max 5
statistic Basic.rack[7].node[3].app 	throughput
field count 39755
field mean 19878
field stddev 11476.424312476
field sum 790249890
field sqrsum 20944519667930
field min 1
field max 39755
statistic Basic.rack[7].node[3].app 	"End-to-End Delay"
field count 39755
field mean 7.6822666829074e-006
field stddev 4.3022687009302e-006
field sum 0.30540851197899
field sqrsum 3.0820569343228e-006
field min 8.496e-007
field max 3.3031579e-005
statistic Basic.rack[7].node[3].app 	hops
field count 39755
field mean 4.2517419192554
field stddev 0.82972774317133
field sum 169028
field sqrsum 746032
field min 3
field max 5
statistic Basic.rack[7].node[4].app 	throughput
field count 39861
field mean 19931
field stddev 11507.023876746
field sum 794469591
field sqrsum 21112499734431
field min 1
field max 39861
statistic Basic.rack[7].node[4].app 	"End-to-End Delay"
field count 39861
field mean 7.663770248162e-006
field stddev 4.326121345323e-006
field sum 0.30548554586198
field sqrsum 3.0871639277738e-006
field min 8.496e-007
field max 3.1831459e-005
statistic Basic.rack[7].node[4].app 	hops
field count 39861
field mean 4.2554125586413
field stddev 0.8268366977514
field sum 169625
field sqrsum 749075
field min 3
field max 5
statistic Basic.rack[7].node[5].app 	throughput
field count 39682
field mean 19841.5
field stddev 11455.351027649
field sum 787350403
field sqrsum 20829354911365
field min 1
field max 39682
statistic Basic.rack[7].node[5].app 	"End-to-End Delay"
field count 39682
field mean 7.6569623078722e-006
field stddev 4.3666642036559e-006
field sum 0.30384357830099
field sqrsum 3.0831464629899e-006
field min 8.496e-007
field max 3.8103475e-005
statistic Basic.rack[7].node[5].app 	hops
field count 39682
field mean 4.248853384406
field stddev 0.82706987384387
field sum 168603
field sqrsum 743513
field min 3
field max 5
statistic Basic.rack[7].node[6].app 	throughput
field count 40309
field mean 20155
field stddev 11636.350337054
field sum 812427895
field sqrsum 21832374822335
field min 1
field max 40309
statistic Basic.rack[7].node[6].app 	"End-to-End Delay"
field count 40309
field mean 7.6899705758511e-006
field stddev 4.3146049607549e-006
field sum 0.30997502394198
field sqrsum 3.1340651233754e-006
field min 8.496e-007
field max 3.7981849e-005
statistic Basic.rack[7].node[6].app 	hops
field count 40309
field mean 4.247909896053
field stddev 0.83100751760279
field sum 171229
field sqrsum 755201
field min 3
field max 5
statistic Basic.rack[7].node[7].app 	throughput
field count 39993
field mean 19997
field stddev 11545.128994515
field sum 799740021
field sqrsum 21322935019909
field min 1
field max 39993
statistic Basic.rack[7].node[7].app 	"End-to-End Delay"
field count 39993
field mean 7.6442578045405e-006
field stddev 4.3595904373358e-006
field sum 0.30571680237699
field sqrsum 3.0970671555716e-006
field min 8.496e-007
field max 3.5356017e-005
statistic Basic.rack[7].node[7].app 	hops
field count 39993
field mean 4.2514690070762
field stddev 0.82615731678553
field sum 170029
field sqrsum 750169
field min 3
field max 5
statistic Basic.rack[7].node[8].app 	throughput
field count 40382
field mean 20191.5
field stddev 11657.423621881
field sum 815373153
field sqrsum 21951204234015
field min 1
field max 40382
statistic Basic.rack[7].node[8].app 	"End-to-End Delay"
field count 40382
field mean 7.6715807275763e-006
field stddev 4.3218776383769e-006
field sum 0.30979377294099
field sqrsum 3.1308695474897e-006
field min 8.496e-007
field max 3.4950298e-005
statistic Basic.rack[7].node[8].app 	hops
field count 40382
field mean 4.2523153880442
field stddev 0.82829291563297
field sum 171717
field sqrsum 757899
field min 3
field max 5
statistic Basic.rack[7].node[9].app 	throughput
field count 39971
field mean 19986
field stddev 11538.778141554
field sum 798860406
field sqrsum 21287765812286
field min 1
field max 39971
statistic Basic.rack[7].node[9].app 	"End-to-End Delay"
field count 39971
field mean 7.7096255175248e-006
field stddev 4.3324096525908e-006
field sum 0.30816144156098
field sqrsum 3.1260371560883e-006
field min 8.496e-007
field max 3.9461141e-005
statistic Basic.rack[7].node[9].app 	hops
field count 39971
field mean 4.2580370768807
field stddev 0.82835968911894
field sum 170198
field sqrsum 752136
field min 3
field max 5
statistic Basic.rack[7].eps.queue[0] 	dropsum
field count 0
field mean nan
field stddev nan
field sum 0
field sqrsum 0
field min nan
field max nan
statistic Basic.rack[7].eps.queue[1] 	dropsum
field count 0
field mean nan
field stddev nan
field sum 0
field sqrsum 0
field min nan
field max nan
statistic Basic.rack[7].eps.queue[2] 	dropsum
field count 0
field mean nan
field stddev nan
field sum 0
field sqrsum 0
field min nan
field max nan
statistic Basic.rack[7].eps.queue[3] 	dropsum
field count 0
field mean nan
field stddev nan
field sum 0
field sqrsum 0
field min nan
field max nan
statistic Basic.rack[8].node[0].app 	throughput
field count 39943
field mean 19972
field stddev 11530.695237785
field sum 797741596
field sqrsum 21243060959884
field min 1
field max 39943
statistic Basic.rack[8].node[0].app 	"End-to-End Delay"
field count 39943
field mean 1.033041115587e-005
field stddev 2.8309215269524e-006
field sum 0.41262761279891
field sqrsum 4.5827127433802e-006
field min 8.992e-006
field max 5.0522243e-005
statistic Basic.rack[8].node[0].app 	hops
field count 39943
field mean 3.992113762111
field stddev 0.99998142082617
field sum 159457
field sqrsum 676511
field min 3
field max 5
statistic Basic.rack[8].node[1].app 	throughput
field count 39672
field mean 19836.5
field stddev 11452.464276303
field sum 786953628
field sqrsum 20813611871220
field min 1
field max 39672
statistic Basic.rack[8].node[1].app 	"End-to-End Delay"
field count 39672
field mean 1.0318159490747e-005
field stddev 2.7841029020993e-006
field sum 0.40934202331691
field sqrsum 4.5311552872971e-006
field min 8.992e-006
field max 4.7611092e-005
statistic Basic.rack[8].node[1].app 	hops
field count 39672
field mean 4.0069066344021
field stddev 0.99998875220129
field sum 158962
field sqrsum 676616
field min 3
field max 5
statistic Basic.rack[8].node[2].app 	throughput
field count 39883
field mean 19942
field stddev 11513.374729707
field sum 795346786
field sqrsum 21147475692954
field min 1
field max 39883
statistic Basic.rack[8].node[2].app 	"End-to-End Delay"
field count 39883
field mean 1.0290122618281e-005
field stddev 2.7145366293552e-006
field sum 0.41040096038491
field sqrsum 4.5169550618304e-006
field min 8.992e-006
field max 4.3267648e-005
statistic Basic.rack[8].node[2].app 	hops
field count 39883
field mean 3.9961136323747
field stddev 1.0000049848557
field sum 159377
field sqrsum 676771
field min 3
field max 5
statistic Basic.rack[8].node[3].app 	throughput
field count 40027
field mean 20014
field stddev 11554.943949092
field sum 801100378
field sqrsum 21377363586930
field min 1
field max 40027
statistic Basic.rack[8].node[3].app 	"End-to-End Delay"
field count 40027
field mean 1.0289414317958e-005
field stddev 2.754447707963e-006
field sum 0.41185438690491
field sqrsum 4.5414169741059e-006
field min 8.992e-006
field max 4.3302496e-005
statistic Basic.rack[8].node[3].app 	hops
field count 40027
field mean 3.9983760961351
field stddev 1.000011173253
field sum 160043
field sqrsum 679939
field min 3
field max 5
statistic Basic.rack[8].node[4].app 	throughput
field count 39493
field mean 19747
field stddev 11400.791427207
field sum 779868271
field sqrsum 20533151707159
field min 1
field max 39493
statistic Basic.rack[8].node[4].app 	"End-to-End Delay"
field count 39493
field mean 1.0317644512291e-005
field stddev 2.7976699243131e-006
field sum 0.40747473472391
field sqrsum 4.5132816466789e-006
field min 8.992e-006
field max 4.7750949e-005
statistic Basic.rack[8].node[4].app 	hops
field count 39493
field mean 3.9939989365204
field stddev 0.99999465394038
field sum 157735
field sqrsum 669485
field min 3
field max 5
statistic Basic.rack[8].node[5].app 	throughput
field count 39913
field mean 19957
field stddev 11522.034983746
field sum 796543741
field sqrsum 21195232404269
field min 1
field max 39913
statistic Basic.rack[8].node[5].app 	"End-to-End Delay"
field count 39913
field mean 1.0291493398189e-005
field stddev 2.7722794923801e-006
field sum 0.41076437600191
field sqrsum 4.5341238802343e-006
field min 8.992e-006
field max 4.5380114e-005
statistic Basic.rack[8].node[5].app 	hops
field count 39913
field mean 3.9996241825971
field stddev 1.0000124568619
field sum 159637
field sqrsum 678401
field min 3
field max 5
statistic Basic.rack[8].node[6].app 	throughput
field count 39777
field mean 19889
field stddev 11482.775165438
field sum 791124753
field sqrsum 20979309908305
field min 1
field max 39777
statistic Basic.rack[8].node[6].app 	"End-to-End Delay"
field count 39777
field mean 1.0314937412422e-005
field stddev 2.7787195942889e-006
field sum 0.41029726545391
field sqrsum 4.5393123496937e-006
field min 8.992e-006
field max 4.4926531e-005
statistic Basic.rack[8].node[6].app 	hops
field count 39777
field mean 4.0022877542298
field stddev 1.0000099533692
field sum 159199
field sqrsum 676937
field min 3
field max 5
statistic Basic.rack[8].node[7].app 	throughput
field count 40128
field mean 20064.5
field stddev 11584.100137689
field sum 805148256
field sqrsum 21539594527264
field min 1
field max 40128
statistic Basic.rack[8].node[7].app 	"End-to-End Delay"
field count 40128
field mean 1.0315714454842e-005
field stddev 2.7872523912393e-006
field sum 0.41394898964391
field sqrsum 4.5819172462741e-006
field min 8.992e-006
field max 3.8924745e-005
statistic Basic.rack[8].node[7].app 	hops
field count 40128
field mean 4.0047348484848
field stddev 1.0000012507629
field sum 160702
field sqrsum 683696
field min 3
field max 5
statistic Basic.rack[8].node[8].app 	throughput
field count 40019
field mean 20010
field stddev 11552.634548015
field sum 800780190
field sqrsum 21364548542470
field min 1
field max 40019
statistic Basic.rack[8].node[8].app 	"End-to-End Delay"
field count 40019
field mean 1.0312187190907e-005
field stddev 2.8018867240528e-006
field sum 0.41268341919291
field sqrsum 4.5698327481237e-006
field min 8.992e-006
field max 4.7225358e-005
statistic Basic.rack[8].node[8].app 	hops
field count 40019
field mean 3.992128738849
field stddev 0.99998151505652
field sum 159761
field sqrsum 677803
field min 3
field max 5
statistic Basic.rack[8].node[9].app 	throughput
field count 39828
field mean 19914.5
field stddev 11497.497597304
field sum 793154706
field sqrsum 21060108138614
field min 1
field max 39828
statistic Basic.rack[8].node[9].app 	"End-to-End Delay"
field count 39828
field mean 1.0285486616047e-005
field stddev 2.7044480350191e-006
field sum 0.40965036094391
field sqrsum 4.504749542935e-006
field min 8.992e-006
field max 3.7836649e-005
statistic Basic.rack[8].node[9].app 	hops
field count 39828
field mean 3.9991463292156
field stddev 1.000012189837
field sum 159278
field sqrsum 676804
field min 3
field max 5
statistic Basic.rack[8].eps.queue[0] 	dropsum
field count 0
field mean nan
field stddev nan
field sum 0
field sqrsum 0
field min nan
field max nan
statistic Basic.rack[8].eps.queue[1] 	dropsum
field count 0
field mean nan
field stddev nan
field sum 0
field sqrsum 0
field min nan
field max nan
statistic Basic.rack[8].eps.queue[2] 	dropsum
field count 0
field mean nan
field stddev nan
field sum 0
field sqrsum 0
field min nan
field max nan
statistic Basic.rack[8].eps.queue[3] 	dropsum
field count 0
field mean nan
field stddev nan
field sum 0
field sqrsum 0
field min nan
field max nan
statistic Basic.rack[9].node[0].app 	throughput
field count 40337
field mean 20169
field stddev 11644.433240824
field sum 813556953
field sqrsum 21877902394425
field min 1
field max 40337
statistic Basic.rack[9].node[0].app 	"End-to-End Delay"
field count 40337
field mean 1.0303875606438e-005
field stddev 2.7122933206539e-006
field sum 0.41562743033691
field sqrsum 4.579306538885e-006
field min 8.992e-006
field max 4.412133e-005
statistic Basic.rack[9].node[0].app 	hops
field count 40337
field mean 3.997595259935
field stddev 1.0000095043704
field sum 161251
field sqrsum 684953
field min 3
field max 5
statistic Basic.rack[9].node[1].app 	throughput
field count 40331
field mean 20166
field stddev 11642.701190016
field sum 813314946
field sqrsum 21868141163066
field min 1
field max 40331
statistic Basic.rack[9].node[1].app 	"End-to-End Delay"
field count 40331
field mean 1.0285984945672e-005
field stddev 2.6948260903714e-006
field sum 0.41484405884391
field sqrsum 4.5599597392908e-006
field min 8.992e-006
field max 4.2556353e-005
statistic Basic.rack[9].node[1].app 	hops
field count 40331
field mean 3.996255981751
field stddev 1.0000053886942
field sum 161173
field sqrsum 684419
field min 3
field max 5
statistic Basic.rack[9].node[2].app 	throughput
field count 40296
field mean 20148.5
field stddev 11632.597560304
field sum 811903956
field sqrsum 21811258508636
field min 1
field max 40296
statistic Basic.rack[9].node[2].app 	"End-to-End Delay"
field count 40296
field mean 1.033487451449e-005
field stddev 2.791896579111e-006
field sum 0.41645410343591
field sqrsum 4.6180877929128e-006
field min 8.992e-006
field max 4.6997398e-005
statistic Basic.rack[9].node[2].app 	hops
field count 40296
field mean 3.9999503672821
field stddev 1.0000124071787
field sum 161182
field sqrsum 685016
field min 3
field max 5
statistic Basic.rack[9].node[3].app 	throughput
field count 40120
field mean 20060.5
field stddev 11581.790736612
field sum 804827260
field sqrsum 21526714723220
field min 1
field max 40120
statistic Basic.rack[9].node[3].app 	"End-to-End Delay"
field count 40120
field mean 1.0302193498702e-005
field stddev 2.7316421110014e-006
field sum 0.41332400316791
field sqrsum 4.5575065655637e-006
field min 8.992e-006
field max 3.9886579e-005
statistic Basic.rack[9].node[3].app 	hops
field count 40120
field mean 4.0018444666002
field stddev 1.000010761794
field sum 160554
field sqrsum 682632
field min 3
field max 5
statistic Basic.rack[9].node[4].app 	throughput
field count 39663
field mean 19832
field stddev 11449.866200092
field sum 786596616
field sqrsum 20799449919144
field min 1
field max 39663
statistic Basic.rack[9].node[4].app 	"End-to-End Delay"
field count 39663
field mean 1.0280381755236e-005
field stddev 2.7122798533596e-006
field sum 0.40775078155791
field sqrsum 4.4836056913717e-006
field min 8.992e-006
field max 4.6839725e-005
statistic Basic.rack[9].node[4].app 	hops
field count 39663
field mean 4.0064795905504
field stddev 0.99999161341383
field sum 158909
field sqrsum 676327
field min 3
field max 5
statistic Basic.rack[9].node[5].app 	throughput
field count 40110
field mean 20055.5
field stddev 11578.903985266
field sum 804426105
field sqrsum 21510622189735
field min 1
field max 40110
statistic Basic.rack[9].node[5].app 	"End-to-End Delay"
field count 40110
field mean 1.0309752320541e-005
field stddev 2.7671594620738e-006
field sum 0.41352416557691
field sqrsum 4.5704532168905e-006
field min 8.992e-006
field max 3.930881e-005
statistic Basic.rack[9].node[5].app 	hops
field count 40110
field mean 3.9990027424582
field stddev 1.0000119686847
field sum 160400
field sqrsum 681550
field min 3
field max 5
statistic Basic.rack[9].node[6].app 	throughput
field count 40291
field mean 20146
field stddev 11631.154184631
field sum 811702486
field sqrsum 21803140476446
field min 1
field max 40291
statistic Basic.rack[9].node[6].app 	"End-to-End Delay"
field count 40291
field mean 1.0317445231439e-005
field stddev 2.7735428684136e-006
field sum 0.41570018581991
field sqrsum 4.5988963382255e-006
field min 8.992e-006
field max 4.5721426e-005
statistic Basic.rack[9].node[6].app 	hops
field count 40291
field mean 4.0016629023851
field stddev 1.00001102731
field sum 161231
field sqrsum 685483
field min 3
field max 5
statistic Basic.rack[9].node[7].app 	throughput
field count 40278
field mean 20139.5
field stddev 11627.401407881
field sum 811178781
field sqrsum 21782043020339
field min 1
field max 40278
statistic Basic.rack[9].node[7].app 	"End-to-End Delay"
field count 40278
field mean 1.0298817760264e-005
field stddev 2.7519730673857e-006
field sum 0.41481578174791
field sqrsum 4.5771441903943e-006
field min 8.992e-006
field max 4.10574e-005
statistic Basic.rack[9].node[7].app 	hops
field count 40278
field mean 3.9922538358409
field stddev 0.99998241160368
field sum 160800
field sqrsum 682230
field min 3
field max 5
statistic Basic.rack[9].node[8].app 	throughput
field count 40130
field mean 20065.5
field stddev 11584.677487958
field sum 805228515
field sqrsum 21542815280805
field min 1
field max 40130
statistic Basic.rack[9].node[8].app 	"End-to-End Delay"
field count 40130
field mean 1.0312833718862e-005
field stddev 2.7684779404283e-006
field sum 0.41385401713791
field sqrsum 4.5755751835354e-006
field min 8.992e-006
field max 4.0129437e-005
statistic Basic.rack[9].node[8].app 	hops
field count 40130
field mean 4.000847246449
field stddev 1.0000121008217
field sum 160554
field sqrsum 682482
field min 3
field max 5
statistic Basic.rack[9].node[9].app 	throughput
field count 40177
field mean 20089
field stddev 11598.245219285
field sum 807115753
field sqrsum 21618595444105
field min 1
field max 40177
statistic Basic.rack[9].node[9].app 	"End-to-End Delay"
field count 40177
field mean 1.0304578860839e-005
field stddev 2.7751879439306e-006
field sum 0.41400706489191
field sqrsum 4.5755906676783e-006
field min 8.992e-006
field max 4.4393125e-005
statistic Basic.rack[9].node[9].app 	hops
field count 40177
field mean 4.0092839186599
field stddev 0.99996934812566
field sum 161081
field sqrsum 685993
field min 3
field max 5
statistic Basic.rack[9].eps.queue[0] 	dropsum
field count 0
field mean nan
field stddev nan
field sum 0
field sqrsum 0
field min nan
field max nan
statistic Basic.rack[9].eps.queue[1] 	dropsum
field count 0
field mean nan
field stddev nan
field sum 0
field sqrsum 0
field min nan
field max nan
statistic Basic.rack[9].eps.queue[2] 	dropsum
field count 0
field mean nan
field stddev nan
field sum 0
field sqrsum 0
field min nan
field max nan
statistic Basic.rack[9].eps.queue[3] 	dropsum
field count 0
field mean nan
field stddev nan
field sum 0
field sqrsum 0
field min nan
field max nan
statistic Basic.rack[10].node[0].app 	throughput
field count 40151
field mean 20076
field stddev 11590.739665785
field sum 806071476
field sqrsum 21576652579076
field min 1
field max 40151
statistic Basic.rack[10].node[0].app 	"End-to-End Delay"
field count 40151
field mean 7.6351441553881e-006
field stddev 4.3126818223985e-006
field sum 0.30655867298299
field sqrsum 3.0873785240347e-006
field min 8.496e-007
field max 4.4490825e-005
statistic Basic.rack[10].node[0].app 	hops
field count 40151
field mean 4.2409902617618
field stddev 0.83025267691624
field sum 170280
field sqrsum 749832
field min 3
field max 5
statistic Basic.rack[10].node[1].app 	throughput
field count 40243
field mean 20122
field stddev 11617.29777817
field sum 809769646
field sqrsum 21725309832534
field min 1
field max 40243
statistic Basic.rack[10].node[1].app 	"End-to-End Delay"
field count 40243
field mean 7.6616550339186e-006
field stddev 4.311998688083e-006
field sum 0.30832798352998
field sqrsum 3.1105355410617e-006
field min 8.496e-007
field max 3.5491068e-005
statistic Basic.rack[10].node[1].app 	hops
field count 40243
field mean 4.2493104390826
field stddev 0.8290257191888
field sum 171005
field sqrsum 754311
field min 3
field max 5
statistic Basic.rack[10].node[2].app 	throughput
field count 40098
field mean 20049.5
field stddev 11575.43988365
field sum 803944851
field sqrsum 21491321738549
field min 1
field max 40098
statistic Basic.rack[10].node[2].app 	"End-to-End Delay"
field count 40098
field mean 7.669974010025e-006
field stddev 4.3215620250887e-006
field sum 0.30755061785398
field sqrsum 3.1077527413134e-006
field min 8.496e-007
field max 3.4215153e-005
statistic Basic.rack[10].node[2].app 	hops
field count 40098
field mean 4.251882886927
field stddev 0.82860400879293
field sum 170492
field sqrsum 752442
field min 3
field max 5
statistic Basic.rack[10].node[3].app 	throughput
field count 40295
field mean 20148
field stddev 11632.30888517
field sum 811863660
field sqrsum 21809634741020
field min 1
field max 40295
statistic Basic.rack[10].node[3].app 	"End-to-End Delay"
field count 40295
field mean 7.6839953048018e-006
field stddev 4.3469958651987e-006
field sum 0.30962659080699
field sqrsum 3.1405797257621e-006
field min 8.496e-007
field max 3.9000948e-005
statistic Basic.rack[10].node[3].app 	hops
field count 40295
field mean 4.2489390743268
field stddev 0.8294818913672
field sum 171211
field sqrsum 755189
field min 3
field max 5
statistic Basic.rack[10].node[4].app 	throughput
field count 40420
field mean 20210.5
field stddev 11668.393276997
field sum 816908410
field sqrsum 22013230924270
field min 1
field max 40420
statistic Basic.rack[10].node[4].app 	"End-to-End Delay"
field count 40420
field mean 7.6534631546261e-006
field stddev 4.3126777522985e-006
field sum 0.30935298070999
field sqrsum 3.119382275801e-006
field min 8.496e-007
field max 3.9963973e-005
statistic Basic.rack[10].node[4].app 	hops
field count 40420
field mean 4.2522018802573
field stddev 0.82782718956142
field sum 171874
field sqrsum 758542
field min 3
field max 5
statistic Basic.rack[10].node[5].app 	throughput
field count 40164
field mean 20082.5
field stddev 11594.492442535
field sum 806593530
field sqrsum 21597617223790
field min 1
field max 40164
statistic Basic.rack[10].node[5].app 	"End-to-End Delay"
field count 40164
field mean 7.7016635133947e-006
field stddev 4.3094603991402e-006
field sum 0.30932961335199
field sqrsum 3.1282377002117e-006
field min 8.496e-007
field max 3.5109157e-005
statistic Basic.rack[10].node[5].app 	hops
field count 40164
field mean 4.2461408226272
field stddev 0.83225222878373
field sum 170542
field sqrsum 751964
field min 3
field max 5
statistic Basic.rack[10].node[6].app 	throughput
field count 39998
field mean 19999.5
field stddev 11546.572370188
field sum 799940001
field sqrsum 21330933419999
field min 1
field max 39998
statistic Basic.rack[10].node[6].app 	"End-to-End Delay"
field count 39998
field mean 7.7078359963494e-006
field stddev 4.3323719063339e-006
field sum 0.30829802418198
field sqrsum 3.1270321534459e-006
field min 8.496e-007
field max 3.6745258e-005
statistic Basic.rack[10].node[6].app 	hops
field count 39998
field mean 4.2526126306315
field stddev 0.82969372594855
field sum 170096
field sqrsum 750886
field min 3
field max 5
statistic Basic.rack[10].node[7].app 	throughput
field count 40177
field mean 20089
field stddev 11598.245219285
field sum 807115753
field sqrsum 21618595444105
field min 1
field max 40177
statistic Basic.rack[10].node[7].app 	"End-to-End Delay"
field count 40177
field mean 7.6638796426061e-006
field stddev 4.3338342946448e-006
field sum 0.30791169240098
field sqrsum 3.1143885919159e-006
field min 8.496e-007
field max 3.233276e-005
statistic Basic.rack[10].node[7].app 	hops
field count 40177
field mean 4.2430246160739
field stddev 0.83035770483405
field sum 170472
field sqrsum 751018
field min 3
field max 5
statistic Basic.rack[10].node[8].app 	throughput
field count 39747
field mean 19874
field stddev 11474.114911399
field sum 789931878
field sqrsum 20931878213870
field min 1
field max 39747
statistic Basic.rack[10].node[8].app 	"End-to-End Delay"
field count 39747
field mean 7.6971384568391e-006
field stddev 4.3072231480241e-006
field sum 0.30593816224398
field sqrsum 3.0922229924011e-006
field min 8.496e-007
field max 3.6546493e-005
statistic Basic.rack[10].node[8].app 	hops
field count 39747
field mean 4.2502578810979
field stddev 0.83085840523316
field sum 168935
field sqrsum 745455
field min 3
field max 5
statistic Basic.rack[10].node[9].app 	throughput
field count 40057
field mean 20029
field stddev 11563.604203131
field sum 802301653
field sqrsum 21425465643365
field min 1
field max 40057
statistic Basic.rack[10].node[9].app 	"End-to-End Delay"
field count 40057
field mean 7.6941039251563e-006
field stddev 4.3349089966999e-006
field sum 0.30820272092999
field sqrsum 3.1240535256546e-006
field min 8.496e-007
field max 3.7905889e-005
statistic Basic.rack[10].node[9].app 	hops
field count 40057
field mean 4.2461492373368
field stddev 0.83096781074419
field sum 170088
field sqrsum 749878
field min 3
field max 5
statistic Basic.rack[10].eps.queue[0] 	dropsum
field count 0
field mean nan
field stddev nan
field sum 0
field sqrsum 0
field min nan
field max nan
statistic Basic.rack[10].eps.queue[1] 	dropsum
field count 0
field mean nan
field stddev nan
field sum 0
field sqrsum 0
field min nan
field max nan
statistic Basic.rack[10].eps.queue[2] 	dropsum
field count 0
field mean nan
field stddev nan
field sum 0
field sqrsum 0
field min nan
field max nan
statistic Basic.rack[10].eps.queue[3] 	dropsum
field count 0
field mean nan
field stddev nan
field sum 0
field sqrsum 0
field min nan
field max nan
statistic Basic.rack[11].node[0].app 	throughput
field count 40120
field mean 20060.5
field stddev 11581.790736612
field sum 804827260
field sqrsum 21526714723220
field min 1
field max 40120
statistic Basic.rack[11].node[0].app 	"End-to-End Delay"
field count 40120
field mean 7.6610648158272e-006
field stddev 4.3301235507215e-006
field sum 0.30736192041099
field sqrsum 3.106949639192e-006
field min 8.496e-007
field max 3.4915817e-005
statistic Basic.rack[11].node[0].app 	hops
field count 40120
field mean 4.2423728813559
field stddev 0.83028805377529
field sum 170204
field sqrsum 749726
field min 3
field max 5
statistic Basic.rack[11].node[1].app 	throughput
field count 40009
field mean 20005
field stddev 11549.747796669
field sum 800380045
field sqrsum 21348536940285
field min 1
field max 40009
statistic Basic.rack[11].node[1].app 	"End-to-End Delay"
field count 40009
field mean 7.6434391123744e-006
field stddev 4.3240790365369e-006
field sum 0.30580635544699
field sqrsum 3.085468219881e-006
field min 8.496e-007
field max 3.429398e-005
statistic Basic.rack[11].node[1].app 	hops
field count 40009
field mean 4.2461696118373
field stddev 0.82883924401953
field sum 169885
field sqrsum 748845
field min 3
field max 5
statistic Basic.rack[11].node[2].app 	throughput
field count 40040
field mean 20020.5
field stddev 11558.696725842
field sum 801620820
field sqrsum 21398198962140
field min 1
field max 40040
statistic Basic.rack[11].node[2].app 	"End-to-End Delay"
field count 40040
field mean 7.684478159615e-006
field stddev 4.3089358036832e-006
field sum 0.30768650551098
field sqrsum 3.1078114522006e-006
field min 8.496e-007
field max 3.4862737e-005
statistic Basic.rack[11].node[2].app 	hops
field count 40040
field mean 4.2536713286713
field stddev 0.82878935102562
field sum 170317
field sqrsum 751975
field min 3
field max 5
statistic Basic.rack[11].node[3].app 	throughput
field count 39938
field mean 19969.5
field stddev 11529.251862111
field sum 797541891
field sqrsum 21235084542469
field min 1
field max 39938
statistic Basic.rack[11].node[3].app 	"End-to-End Delay"
field count 39938
field mean 7.6709072222942e-006
field stddev 4.3384547237417e-006
field sum 0.30636069264399
field sqrsum 3.1017662274965e-006
field min 8.496e-007
field max 3.9137148e-005
statistic Basic.rack[11].node[3].app 	hops
field count 39938
field mean 4.24598127097
field stddev 0.8297719090738
[...]
field max 4.2017068e-005
statistic Basic.rack[13].node[1].app 	hops
field count 39952
field mean 4.005206247497
field stddev 0.99999896248501
field sum 160016
field sqrsum 680848
field min 3
field max 5
statistic Basic.rack[13].node[2].app 	throughput
field count 40089
field mean 20045
field stddev 11572.841807439
field sum 803584005
field sqrsum 21476853978965
field min 1
field max 40089
statistic Basic.rack[13].node[2].app 	"End-to-End Delay"
field count 40089
field mean 1.0322414539497e-005
field stddev 2.768596258792e-006
field sum 0.41381527647391
field sqrsum 4.5788523673297e-006
field min 8.992e-006
field max 3.7196978e-005
statistic Basic.rack[13].node[2].app 	hops
field count 40089
field mean 3.9995759435257
field stddev 1.0000123825695
field sum 160339
field sqrsum 681377
field min 3
field max 5
statistic Basic.rack[13].node[3].app 	throughput
field count 39955
field mean 19978
field stddev 11534.1593394
field sum 798220990
field sqrsum 21262212510630
field min 1
field max 39955
statistic Basic.rack[13].node[3].app 	"End-to-End Delay"
field count 39955
field mean 1.0294732977472e-005
field stddev 2.743704286415e-006
field sum 0.41132605611491
field sqrsum 4.5352621588238e-006
field min 8.992e-006
field max 4.3401244e-005
statistic Basic.rack[13].node[3].app 	hops
field count 39955
field mean 3.9991740708297
field stddev 1.0000121732294
field sum 159787
field sqrsum 678971
field min 3
field max 5
statistic Basic.rack[13].node[4].app 	throughput
field count 40426
field mean 20213.5
field stddev 11670.125327805
field sum 817150951
field sqrsum 22023035280401
field min 1
field max 40426
statistic Basic.rack[13].node[4].app 	"End-to-End Delay"
field count 40426
field mean 1.0311340651361e-005
field stddev 2.7840388607155e-006
field sum 0.41684625717191
field sqrsum 4.6115727728238e-006
field min 8.992e-006
field max 4.3870604e-005
statistic Basic.rack[13].node[4].app 	hops
field count 40426
field mean 3.9977242368773
field stddev 1.000009778923
field sum 161612
field sqrsum 686506
field min 3
field max 5
statistic Basic.rack[13].node[5].app 	throughput
field count 39882
field mean 19941.5
field stddev 11513.086054573
field sum 795306903
field sqrsum 21145885039265
field min 1
field max 39882
statistic Basic.rack[13].node[5].app 	"End-to-End Delay"
field count 39882
field mean 1.0303001139835e-005
field stddev 2.7222594168544e-006
field sum 0.41090429145891
field sqrsum 4.5290933637069e-006
field min 8.992e-006
field max 4.084955e-005
statistic Basic.rack[13].node[5].app 	hops
field count 39882
field mean 4.0083747053809
field stddev 0.9999774683202
field sum 159862
field sqrsum 680666
field min 3
field max 5
statistic Basic.rack[13].node[6].app 	throughput
field count 39977
field mean 19989
field stddev 11540.510192362
field sum 799100253
field sqrsum 21297353576205
field min 1
field max 39977
statistic Basic.rack[13].node[6].app 	"End-to-End Delay"
field count 39977
field mean 1.0321558779046e-005
field stddev 2.8241717372845e-006
field sum 0.41262495530991
field sqrsum 4.5777791472954e-006
field min 8.992e-006
field max 4.1279767e-005
statistic Basic.rack[13].node[6].app 	hops
field count 39977
field mean 4.0035270280411
field stddev 1.0000062873657
field sum 160049
field sqrsum 680737
field min 3
field max 5
statistic Basic.rack[13].node[7].app 	throughput
field count 39859
field mean 19930
field stddev 11506.446526477
field sum 794389870
field sqrsum 21109322015510
field min 1
field max 39859
statistic Basic.rack[13].node[7].app 	"End-to-End Delay"
field count 39859
field mean 1.0296553411448e-005
field stddev 2.7225049300258e-006
field sum 0.41041032242691
field sqrsum 4.5212406205396e-006
field min 8.992e-006
field max 4.041679e-005
statistic Basic.rack[13].node[7].app 	hops
field count 39859
field mean 3.9925989111618
field stddev 0.99998515567778
field sum 159141
field sqrsum 675243
field min 3
field max 5
statistic Basic.rack[13].node[8].app 	throughput
field count 39798
field mean 19899.5
field stddev 11488.837343265
field sum 791960301
field sqrsum 21012554692899
field min 1
field max 39798
statistic Basic.rack[13].node[8].app 	"End-to-End Delay"
field count 39798
field mean 1.0304418285565e-005
field stddev 2.7622007600808e-006
field sum 0.41009523892891
field sqrsum 4.5294341605349e-006
field min 8.992e-006
field max 4.3214903e-005
statistic Basic.rack[13].node[8].app 	hops
field count 39798
field mean 4.003367003367
field stddev 1.000006895239
field sum 159326
field sqrsum 677638
field min 3
field max 5
statistic Basic.rack[13].node[9].app 	throughput
field count 39535
field mean 19768
field stddev 11412.915782861
field sum 781527880
field sqrsum 20598730333160
field min 1
field max 39535
statistic Basic.rack[13].node[9].app 	"End-to-End Delay"
field count 39535
field mean 1.0341452976323e-005
field stddev 2.8202696124568e-006
field sum 0.40884934341892
field sqrsum 4.5425465598049e-006
field min 8.992e-006
field max 4.432649e-005
statistic Basic.rack[13].node[9].app 	hops
field count 39535
field mean 3.99790059441
field stddev 1.0000104434793
field sum 158057
field sqrsum 671431
field min 3
field max 5
statistic Basic.rack[13].eps.queue[0] 	dropsum
field count 0
field mean nan
field stddev nan
field sum 0
field sqrsum 0
field min nan
field max nan
statistic Basic.rack[13].eps.queue[1] 	dropsum
field count 0
field mean nan
field stddev nan
field sum 0
field sqrsum 0
field min nan
field max nan
statistic Basic.rack[13].eps.queue[2] 	dropsum
field count 0
field mean nan
field stddev nan
field sum 0
field sqrsum 0
field min nan
field max nan
statistic Basic.rack[13].eps.queue[3] 	dropsum
field count 0
field mean nan
field stddev nan
field sum 0
field sqrsum 0
field min nan
field max nan
statistic Basic.rack[14].node[0].app 	throughput
field count 40059
field mean 20030
field stddev 11564.1815534
field sum 802381770
field sqrsum 21428675010210
field min 1
field max 40059
statistic Basic.rack[14].node[0].app 	"End-to-End Delay"
field count 40059
field mean 7.6911673335077e-006
field stddev 4.305768939663e-006
field sum 0.30810047221299
field sqrsum 3.1123134332709e-006
field min 8.496e-007
field max 3.1977372e-005
statistic Basic.rack[14].node[0].app 	hops
field count 40059
field mean 4.2564717042363
field stddev 0.82851066340984
field sum 170510
field sqrsum 753268
field min 3
field max 5
statistic Basic.rack[14].node[1].app 	throughput
field count 39807
field mean 19904
field stddev 11491.435419477
field sum 792318528
field sqrsum 21026813202240
field min 1
field max 39807
statistic Basic.rack[14].node[1].app 	"End-to-End Delay"
field count 39807
field mean 7.6503311363073e-006
field stddev 4.3165120089361e-006
field sum 0.30453673154299
field sqrsum 3.071483214875e-006
field min 8.496e-007
field max 3.7042679e-005
statistic Basic.rack[14].node[1].app 	hops
field count 39807
field mean 4.2485492501319
field stddev 0.82852316112963
field sum 169122
field sqrsum 745848
field min 3
field max 5
statistic Basic.rack[14].node[2].app 	throughput
field count 39736
field mean 19868.5
field stddev 11470.939484919
field sum 789494716
field sqrsum 20914504521556
field min 1
field max 39736
statistic Basic.rack[14].node[2].app 	"End-to-End Delay"
field count 39736
field mean 7.6856371776471e-006
field stddev 4.3266938556975e-006
field sum 0.30539647889098
field sqrsum 3.0910168467982e-006
field min 8.496e-007
field max 3.9334758e-005
statistic Basic.rack[14].node[2].app 	hops
field count 39736
field mean 4.2500754982887
field stddev 0.82964453135565
field sum 168881
field sqrsum 745107
field min 3
field max 5
statistic Basic.rack[14].node[3].app 	throughput
field count 40244
field mean 20122.5
field stddev 11617.586453304
field sum 809809890
field sqrsum 21726929412070
field min 1
field max 40244
statistic Basic.rack[14].node[3].app 	"End-to-End Delay"
field count 40244
field mean 7.713508276016e-006
field stddev 4.318507498998e-006
field sum 0.31042242705999
field sqrsum 3.1449580711498e-006
field min 8.496e-007
field max 3.1041186e-005
statistic Basic.rack[14].node[3].app 	hops
field count 40244
field mean 4.2554666534142
field stddev 0.82962784911097
field sum 171257
field sqrsum 756477
field min 3
field max 5
statistic Basic.rack[14].node[4].app 	throughput
field count 40005
field mean 20003
field stddev 11548.593096131
field sum 800220015
field sqrsum 21342134540055
field min 1
field max 40005
statistic Basic.rack[14].node[4].app 	"End-to-End Delay"
field count 40005
field mean 7.6831805073613e-006
field stddev 4.3149603133367e-006
field sum 0.30736563619699
field sqrsum 3.1063754404183e-006
field min 8.496e-007
field max 3.199303e-005
statistic Basic.rack[14].node[4].app 	hops
field count 40005
field mean 4.2500687414073
field stddev 0.82978247383193
field sum 170024
field sqrsum 750158
field min 3
field max 5
statistic Basic.rack[14].node[5].app 	throughput
field count 39791
field mean 19896
field stddev 11486.816617323
field sum 791681736
field sqrsum 21001469198696
field min 1
field max 39791
statistic Basic.rack[14].node[5].app 	"End-to-End Delay"
field count 39791
field mean 7.6537031631521e-006
field stddev 4.3401090965273e-006
field sum 0.30454850256499
field sqrsum 3.0804300413416e-006
field min 8.496e-007
field max 4.4468881e-005
statistic Basic.rack[14].node[5].app 	hops
field count 39791
field mean 4.2503832524943
field stddev 0.82756044304399
field sum 169127
field sqrsum 746105
field min 3
field max 5
statistic Basic.rack[14].node[6].app 	throughput
field count 40319
field mean 20160
field stddev 11639.237088401
field sum 812831040
field sqrsum 21848627411520
field min 1
field max 40319
statistic Basic.rack[14].node[6].app 	"End-to-End Delay"
field count 40319
field mean 7.639657691113e-006
field stddev 4.3517344352404e-006
field sum 0.30802335844798
field sqrsum 3.116718877649e-006
field min 8.496e-007
field max 3.6753608e-005
statistic Basic.rack[14].node[6].app 	hops
field count 40319
field mean 4.2507502666237
field stddev 0.82649397241221
field sum 171386
field sqrsum 756060
field min 3
field max 5
statistic Basic.rack[14].node[7].app 	throughput
field count 40130
field mean 20065.5
field stddev 11584.677487958
field sum 805228515
field sqrsum 21542815280805
field min 1
field max 40130
statistic Basic.rack[14].node[7].app 	"End-to-End Delay"
field count 40130
field mean 7.6625993858955e-006
field stddev 4.3236826056627e-006
field sum 0.30750011335599
field sqrsum 3.1064309865792e-006
field min 8.496e-007
field max 3.2475402e-005
statistic Basic.rack[14].node[7].app 	hops
field count 40130
field mean 4.2534762023424
field stddev 0.8275159079622
field sum 170692
field sqrsum 753514
field min 3
field max 5
statistic Basic.rack[14].node[8].app 	throughput
field count 40212
field mean 20106.5
field stddev 11608.348848997
field sum 808522578
field sqrsum 21675142778550
field min 1
field max 40212
statistic Basic.rack[14].node[8].app 	"End-to-End Delay"
field count 40212
field mean 7.696472221824e-006
field stddev 4.3254771620229e-006
field sum 0.30949054098398
field sqrsum 3.1343232165831e-006
field min 8.496e-007
field max 3.4314355e-005
statistic Basic.rack[14].node[8].app 	hops
field count 40212
field mean 4.2519645876853
field stddev 0.82945655675402
field sum 170980
field sqrsum 754666
field min 3
field max 5
statistic Basic.rack[14].node[9].app 	throughput
field count 40172
field mean 20086.5
field stddev 11596.801843612
field sum 806914878
field sqrsum 21610525290970
field min 1
field max 40172
statistic Basic.rack[14].node[9].app 	"End-to-End Delay"
field count 40172
field mean 7.6379436493574e-006
field stddev 4.3475085076581e-006
field sum 0.30683147228199
field sqrsum 3.1028267460739e-006
field min 8.496e-007
field max 3.1965983e-005
statistic Basic.rack[14].node[9].app 	hops
field count 40172
field mean 4.2404908891765
field stddev 0.82933714048979
field sum 170349
field sqrsum 749993
field min 3
field max 5
statistic Basic.rack[14].eps.queue[0] 	dropsum
field count 0
field mean nan
field stddev nan
field sum 0
field sqrsum 0
field min nan
field max nan
statistic Basic.rack[14].eps.queue[1] 	dropsum
field count 0
field mean nan
field stddev nan
field sum 0
field sqrsum 0
field min nan
field max nan
statistic Basic.rack[14].eps.queue[2] 	dropsum
field count 0
field mean nan
field stddev nan
field sum 0
field sqrsum 0
field min nan
field max nan
statistic Basic.rack[14].eps.queue[3] 	dropsum
field count 0
field mean nan
field stddev nan
field sum 0
field sqrsum 0
field min nan
field max nan
statistic Basic.rack[15].node[0].app 	throughput
field count 40033
field mean 20017
field stddev 11556.6759999
field sum 801340561
field sqrsum 21386978232529
field min 1
field max 40033
statistic Basic.rack[15].node[0].app 	"End-to-End Delay"
field count 40033
field mean 7.689778875827e-006
field stddev 4.3285563929788e-006
field sum 0.30784491773598
field sqrsum 3.1173149281391e-006
field min 8.496e-007
field max 3.4056366e-005
statistic Basic.rack[15].node[0].app 	hops
field count 40033
field mean 4.2544400869283
field stddev 0.82855755730251
field sum 170318
field sqrsum 752090
field min 3
field max 5
statistic Basic.rack[15].node[1].app 	throughput
field count 39807
field mean 19904
field stddev 11491.435419477
field sum 792318528
field sqrsum 21026813202240
field min 1
field max 39807
statistic Basic.rack[15].node[1].app 	"End-to-End Delay"
field count 39807
field mean 7.6317544838341e-006
field stddev 4.3352474025228e-006
field sum 0.30379725073799
field sqrsum 3.0666347243514e-006
field min 8.496e-007
field max 4.1486044e-005
statistic Basic.rack[15].node[1].app 	hops
field count 39807
field mean 4.2535232496797
field stddev 0.8255248736369
field sum 169320
field sqrsum 747334
field min 3
field max 5
statistic Basic.rack[15].node[2].app 	throughput
field count 40164
field mean 20082.5
field stddev 11594.492442535
field sum 806593530
field sqrsum 21597617223790
field min 1
field max 40164
statistic Basic.rack[15].node[2].app 	"End-to-End Delay"
field count 40164
field mean 7.6745979320781e-006
field stddev 4.3082406206243e-006
field sum 0.30824255134399
field sqrsum 3.1111005697019e-006
field min 8.496e-007
field max 3.3252048e-005
statistic Basic.rack[15].node[2].app 	hops
field count 40164
field mean 4.2484314311324
field stddev 0.83028284240408
field sum 170634
field sqrsum 752614
field min 3
field max 5
statistic Basic.rack[15].node[3].app 	throughput
field count 39847
field mean 19924
field stddev 11502.982424861
field sum 793911628
field sqrsum 21090262397820
field min 1
field max 39847
statistic Basic.rack[15].node[3].app 	"End-to-End Delay"
field count 39847
field mean 7.6594760873087e-006
field stddev 4.3413582971635e-006
field sum 0.30520714365099
field sqrsum 3.0887199946974e-006
field min 8.496e-007
field max 3.4965417e-005
statistic Basic.rack[15].node[3].app 	hops
field count 39847
field mean 4.2475719627575
field stddev 0.82840790942194
field sum 169253
field sqrsum 746259
field min 3
field max 5
statistic Basic.rack[15].node[4].app 	throughput
field count 40121
field mean 20061
field stddev 11582.079411746
field sum 804867381
field sqrsum 21528324417861
field min 1
field max 40121
statistic Basic.rack[15].node[4].app 	"End-to-End Delay"
field count 40121
field mean 7.6159793140995e-006
field stddev 4.3359217723088e-006
field sum 0.30556070606099
field sqrsum 3.0814087472992e-006
field min 8.496e-007
field max 3.8035837e-005
statistic Basic.rack[15].node[4].app 	hops
field count 40121
field mean 4.2481244236186
field stddev 0.82642247775379
field sum 170439
field sqrsum 751447
field min 3
field max 5
statistic Basic.rack[15].node[5].app 	throughput
field count 39882
field mean 19941.5
field stddev 11513.086054573
field sum 795306903
field sqrsum 21145885039265
field min 1
field max 39882
statistic Basic.rack[15].node[5].app 	"End-to-End Delay"
field count 39882
field mean 7.6823065545105e-006
field stddev 4.3112804727117e-006
field sum 0.30638575000699
field sqrsum 3.0950229584843e-006
field min 8.496e-007
field max 2.9806029e-005
statistic Basic.rack[15].node[5].app 	hops
field count 39882
field mean 4.2478561757184
field stddev 0.83061788605935
field sum 169413
field sqrsum 747157
field min 3
field max 5
statistic Basic.rack[15].node[6].app 	throughput
field count 39995
field mean 19998
field stddev 11545.706344785
field sum 799820010
field sqrsum 21326134139970
field min 1
field max 39995
statistic Basic.rack[15].node[6].app 	"End-to-End Delay"
field count 39995
field mean 7.6598524793095e-006
field stddev 4.352246043342e-006
field sum 0.30635579990999
field sqrsum 3.1042084060891e-006
field min 8.496e-007
field max 4.061835e-005
statistic Basic.rack[15].node[6].app 	hops
field count 39995
field mean 4.2560320040005
field stddev 0.82562585696199
field sum 170220
field sqrsum 751724
field min 3
field max 5
statistic Basic.rack[15].node[7].app 	throughput
field count 39828
field mean 19914.5
field stddev 11497.497597304
field sum 793154706
field sqrsum 21060108138614
field min 1
field max 39828
statistic Basic.rack[15].node[7].app 	"End-to-End Delay"
field count 39828
field mean 7.6529735534043e-006
field stddev 4.3213176902637e-006
field sum 0.30480263068499
field sqrsum 3.0763673697693e-006
field min 8.496e-007
field max 3.5941167e-005
statistic Basic.rack[15].node[7].app 	hops
field count 39828
field mean 4.2512302902481
field stddev 0.82780947643984
field sum 169318
field sqrsum 747102
field min 3
field max 5
statistic Basic.rack[15].node[8].app 	throughput
field count 40357
field mean 20179
field stddev 11650.206743516
field sum 814363903
field sqrsum 21910460810215
field min 1
field max 40357
statistic Basic.rack[15].node[8].app 	"End-to-End Delay"
field count 40357
field mean 7.7059464491162e-006
field stddev 4.3166047061373e-006
field sum 0.31098888084698
field sqrsum 3.1484200847626e-006
field min 8.496e-007
field max 3.1376852e-005
statistic Basic.rack[15].node[8].app 	hops
field count 40357
field mean 4.2507123919023
field stddev 0.83065719596663
field sum 171546
field sqrsum 757038
field min 3
field max 5
statistic Basic.rack[15].node[9].app 	throughput
field count 40084
field mean 20042.5
field stddev 11571.398431766
field sum 803383570
field sqrsum 21468819141110
field min 1
field max 40084
statistic Basic.rack[15].node[9].app 	"End-to-End Delay"
field count 40084
field mean 7.6788979894219e-006
field stddev 4.3149160152071e-006
field sum 0.30780094700799
field sqrsum 3.1098574173715e-006
field min 8.496e-007
field max 3.5955714e-005
statistic Basic.rack[15].node[9].app 	hops
field count 40084
field mean 4.247305658118
field stddev 0.83057511767315
field sum 170249
field sqrsum 750751
field min 3
field max 5
statistic Basic.rack[15].eps.queue[0] 	dropsum
field count 0
field mean nan
field stddev nan
field sum 0
field sqrsum 0
field min nan
field max nan
statistic Basic.rack[15].eps.queue[1] 	dropsum
field count 0
field mean nan
field stddev nan
field sum 0
field sqrsum 0
field min nan
field max nan
statistic Basic.rack[15].eps.queue[2] 	dropsum
field count 0
field mean nan
field stddev nan
field sum 0
field sqrsum 0
field min nan
field max nan
statistic Basic.rack[15].eps.queue[3] 	dropsum
field count 0
field mean nan
field stddev nan
field sum 0
field sqrsum 0
field min nan
field max nan
