version 2
run Basic-77-20180510-21:00:08-22672
attr configname Basic
attr datetime 20180510-21:00:08
attr experiment Basic
attr inifile omnetpp.ini
attr iterationvars "$0=exponential(0.05 ms), $1=7, $2=3"
attr iterationvarsf exponential(0.05_ms),7,3-
attr measurement "$0=exponential(0.05 ms), $1=7, $2=3"
attr network Networks.Basic
attr processid 22672
attr repetition 0
attr replication #0
attr resultdir results
attr runnumber 77
attr seedset 77
param **.frameCapacity 50
param **.packetLength "1024 bytes"
param **.pattern 7
param **.sendIaTime "exponential(0.05 ms)"
param **.tp 3

statistic Basic.rack[0].node[0].app 	throughput
field count 182061
field mean 91031
field stddev 52556.628016835
field sum 16573194891
field sqrsum 2.0115604810985e+015
field min 1
field max 182061
statistic Basic.rack[0].node[0].app 	"End-to-End Delay"
field count 182061
field mean 0.00019519049044586
field stddev 0.00020086558970574
field sum 35.536575881063
field sqrsum 0.014281973787365
field min 4e-007
field max 0.000622827946
statistic Basic.rack[0].node[0].app 	hops
field count 182061
field mean 2.9596728568996
field stddev 0.71152035965876
field sum 538841
field sqrsum 1686963
field min 2
field max 4
statistic Basic.rack[0].node[1].app 	throughput
field count 182435
field mean 91218
field stddev 52664.592517174
field sum 16641355830
field sqrsum 2.0239827143493e+015
field min 1
field max 182435
statistic Basic.rack[0].node[1].app 	"End-to-End Delay"
field count 182435
field mean 0.00019428545416791
field stddev 0.00020085326720412
field sum 35.444466831123
field sqrsum 0.014246103139467
field min 4e-007
field max 0.000614247798
statistic Basic.rack[0].node[1].app 	hops
field count 182435
field mean 2.9570367528161
field stddev 0.71110420882662
field sum 539467
field sqrsum 1687475
field min 2
field max 4
statistic Basic.rack[0].node[2].app 	throughput
field count 182722
field mean 91361.5
field stddev 52747.442280803
field sum 16693756003
field sqrsum 2.0335498875054e+015
field min 1
field max 182722
statistic Basic.rack[0].node[2].app 	"End-to-End Delay"
field count 182722
field mean 0.00019510582078956
field stddev 0.00020081671041866
field sum 35.65012578631
field sqrsum 0.014324200988366
field min 4e-007
field max 0.000630919204
statistic Basic.rack[0].node[2].app 	hops
field count 182722
field mean 2.9589814034435
field stddev 0.71160115224958
field sum 540671
field sqrsum 1692361
field min 2
field max 4
statistic Basic.rack[0].node[3].app 	throughput
field count 182011
field mean 91006
field stddev 52542.194260106
field sum 16564093066
field sqrsum 2.0099036167215e+015
field min 1
field max 182011
statistic Basic.rack[0].node[3].app 	"End-to-End Delay"
field count 182011
field mean 0.00019518996265508
field stddev 0.00020086262312474
field sum 35.526720292814
field sqrsum 0.014277797058222
field min 4e-007
field max 0.00064744583
statistic Basic.rack[0].node[3].app 	hops
field count 182011
field mean 2.9602111960266
field stddev 0.71137071292099
field sum 538791
field sqrsum 1687041
field min 2
field max 4
statistic Basic.rack[0].node[4].app 	throughput
field count 182059
field mean 91030
field stddev 52556.050666566
field sum 16572830770
field sqrsum 2.0114941890472e+015
field min 1
field max 182059
statistic Basic.rack[0].node[4].app 	"End-to-End Delay"
field count 182059
field mean 0.00019456755706665
field stddev 0.00020085927735758
field sum 35.422774871998
field sqrsum 0.014237152522137
field min 4e-007
field max 0.000654358523
statistic Basic.rack[0].node[4].app 	hops
field count 182059
field mean 2.9571897022394
field stddev 0.71185003580206
field sum 538383
field sqrsum 1684355
field min 2
field max 4
statistic Basic.rack[0].node[5].app 	throughput
field count 182292
field mean 91146.5
field stddev 52623.311972927
field sum 16615277778
field sqrsum 2.0192270162307e+015
field min 1
field max 182292
statistic Basic.rack[0].node[5].app 	"End-to-End Delay"
field count 182292
field mean 0.00019478629466392
field stddev 0.00020083555981578
field sum 35.507983226876
field sqrsum 0.014269161765825
field min 4e-007
field max 0.000625515672
statistic Basic.rack[0].node[5].app 	hops
field count 182292
field mean 2.9589340179492
field stddev 0.710346393549
field sum 539390
field sqrsum 1688002
field min 2
field max 4
statistic Basic.rack[0].node[6].app 	throughput
field count 182668
field mean 91334.5
field stddev 52731.853823535
field sum 16683890446
field sqrsum 2.0317474946234e+015
field min 1
field max 182668
statistic Basic.rack[0].node[6].app 	"End-to-End Delay"
field count 182668
field mean 0.00019548635347607
field stddev 0.0002010095153957
field sum 35.709101216766
field sqrsum 0.014361270202125
field min 4e-007
field max 0.000624889391
statistic Basic.rack[0].node[6].app 	hops
field count 182668
field mean 2.9601024810038
field stddev 0.71255064222158
field sum 540716
field sqrsum 1693320
field min 2
field max 4
statistic Basic.rack[0].node[7].app 	throughput
field count 182022
field mean 91011.5
field stddev 52545.369686586
field sum 16566095253
field sqrsum 2.0102680487928e+015
field min 1
field max 182022
statistic Basic.rack[0].node[7].app 	"End-to-End Delay"
field count 182022
field mean 0.00019487995245756
field stddev 0.00020090817540968
field sum 35.472438706231
field sqrsum 0.014259980094871
field min 4e-007
field max 0.000644479745
statistic Basic.rack[0].node[7].app 	hops
field count 182022
field mean 2.9575820505214
field stddev 0.71115472748842
field sum 538345
field sqrsum 1684255
field min 2
field max 4
statistic Basic.rack[0].node[8].app 	throughput
field count 181872
field mean 90936.5
field stddev 52502.068416397
field sum 16538803128
field sqrsum 2.0053023145981e+015
field min 1
field max 181872
statistic Basic.rack[0].node[8].app 	"End-to-End Delay"
field count 181872
field mean 0.00019541504500216
field stddev 0.0002009085141396
field sum 35.540525064633
field sqrsum 0.014286236370888
field min 4e-007
field max 0.000649065425
statistic Basic.rack[0].node[8].app 	hops
field count 181872
field mean 2.9602302718395
field stddev 0.71220435885883
field sum 538383
field sqrsum 1685989
field min 2
field max 4
statistic Basic.rack[0].node[9].app 	throughput
field count 182696
field mean 91348.5
field stddev 52739.936727304
field sum 16689005556
field sqrsum 2.0326819357078e+015
field min 1
field max 182696
statistic Basic.rack[0].node[9].app 	"End-to-End Delay"
field count 182696
field mean 0.00019549587292693
field stddev 0.00020092362662089
field sum 35.716314000258
field sqrsum 0.014357844623986
field min 4e-007
field max 0.000618223907
statistic Basic.rack[0].node[9].app 	hops
field count 182696
field mean 2.9610226824889
field stddev 0.71082785483367
field sum 540967
field sqrsum 1694127
field min 2
field max 4
statistic Basic.rack[0].eps.queue[0] 	dropsum
field count 0
field mean nan
field stddev nan
field sum 0
field sqrsum 0
field min nan
field max nan
statistic Basic.rack[0].eps.queue[1] 	dropsum
field count 279637
field mean 139819
field stddev 80724.392950128
field sum 39098565703
field sqrsum 7.2889501111818e+015
field min 1
field max 279637
statistic Basic.rack[0].eps.queue[2] 	dropsum
field count 0
field mean nan
field stddev nan
field sum 0
field sqrsum 0
field min nan
field max nan
statistic Basic.rack[0].eps.queue[3] 	dropsum
field count 0
field mean nan
field stddev nan
field sum 0
field sqrsum 0
field min nan
field max nan
statistic Basic.rack[1].node[0].app 	throughput
field count 182670
field mean 91335.5
field stddev 52732.431173804
field sum 16684255785
field sqrsum 2.0318142309159e+015
field min 1
field max 182670
statistic Basic.rack[1].node[0].app 	"End-to-End Delay"
field count 182670
field mean 0.00019556985413591
field stddev 0.00020101997050925
field sum 35.724745255006
field sqrsum 0.014368160053584
field min 4e-007
field max 0.000635947299
statistic Basic.rack[1].node[0].app 	hops
field count 182670
field mean 2.9610171347238
field stddev 0.71237837567189
field sum 540889
field sqrsum 1694283
field min 2
field max 4
statistic Basic.rack[1].node[1].app 	throughput
field count 181882
field mean 90941.5
field stddev 52504.955167743
field sum 16540621903
field sqrsum 2.0056331088483e+015
field min 1
field max 181882
statistic Basic.rack[1].node[1].app 	"End-to-End Delay"
field count 181882
field mean 0.00019487598785726
field stddev 0.00020088013044517
field sum 35.444434423455
field sqrsum 0.014246681664918
field min 4e-007
field max 0.000643316929
statistic Basic.rack[1].node[1].app 	hops
field count 181882
field mean 2.9576648596343
field stddev 0.71069585526768
field sum 537946
field sqrsum 1682930
field min 2
field max 4
statistic Basic.rack[1].node[2].app 	throughput
field count 182132
field mean 91066.5
field stddev 52577.123951392
field sum 16586123778
field sqrsum 2.0139147926644e+015
field min 1
field max 182132
statistic Basic.rack[1].node[2].app 	"End-to-End Delay"
field count 182132
field mean 0.0001949365373121
field stddev 0.00020090378845751
field sum 35.504181413728
field sqrsum 0.014272294113831
field min 4e-007
field max 0.000612051555
statistic Basic.rack[1].node[2].app 	hops
field count 182132
field mean 2.9616047701667
field stddev 0.71109828611006
field sum 539403
field sqrsum 1689595
field min 2
field max 4
statistic Basic.rack[1].node[3].app 	throughput
field count 182557
field mean 91279
field stddev 52699.810883595
field sum 16663620403
field sqrsum 2.0280459211471e+015
field min 1
field max 182557
statistic Basic.rack[1].node[3].app 	"End-to-End Delay"
field count 182557
field mean 0.00019503089209461
field stddev 0.00020091021615224
field sum 35.604254568116
field sqrsum 0.014312786945188
field min 4e-007
field max 0.000637626471
statistic Basic.rack[1].node[3].app 	hops
field count 182557
field mean 2.9603192427571
field stddev 0.7120341726654
field sum 540427
field sqrsum 1692391
field min 2
field max 4
statistic Basic.rack[1].node[4].app 	throughput
field count 182729
field mean 91365
field stddev 52749.463006745
field sum 16695035085
field sqrsum 2.033783609043e+015
field min 1
field max 182729
statistic Basic.rack[1].node[4].app 	"End-to-End Delay"
field count 182729
field mean 0.00019515947084804
field stddev 0.00020092247185694
field sum 35.661294948592
field sqrsum 0.014336339520096
field min 4e-007
field max 0.000622629882
statistic Basic.rack[1].node[4].app 	hops
field count 182729
field mean 2.9596998834339
field stddev 0.71230879263369
field sum 540823
field sqrsum 1693387
field min 2
field max 4
statistic Basic.rack[1].node[5].app 	throughput
field count 182542
field mean 91271.5
field stddev 52695.480756576
field sum 16660882153
field sqrsum 2.0275460536093e+015
field min 1
field max 182542
statistic Basic.rack[1].node[5].app 	"End-to-End Delay"
field count 182542
field mean 0.00019465044652863
field stddev 0.00020080308823878
field sum 35.53188181023
field sqrsum 0.014276693002391
field min 4e-007
field max 0.000647111148
statistic Basic.rack[1].node[5].app 	hops
field count 182542
field mean 2.9597079028388
field stddev 0.71102443492972
field sum 540271
field sqrsum 1691329
field min 2
field max 4
statistic Basic.rack[1].node[6].app 	throughput
field count 182058
field mean 91029.5
field stddev 52555.761991432
field sum 16572648711
field sqrsum 2.0114610435677e+015
field min 1
field max 182058
statistic Basic.rack[1].node[6].app 	"End-to-End Delay"
field count 182058
field mean 0.00019518994442006
field stddev 0.00020077086620857
field sum 35.535890901228
field sqrsum 0.01427477339025
field min 4e-007
field max 0.000625902907
statistic Basic.rack[1].node[6].app 	hops
field count 182058
field mean 2.9601445693131
field stddev 0.71057177486543
field sum 538918
field sqrsum 1687198
field min 2
field max 4
statistic Basic.rack[1].node[7].app 	throughput
field count 183053
field mean 91527
field stddev 52842.993750354
field sum 16754291931
field sqrsum 2.0446211853275e+015
field min 1
field max 183053
statistic Basic.rack[1].node[7].app 	"End-to-End Delay"
field count 183053
field mean 0.00019471135752391
field stddev 0.00020074305414678
field sum 35.642498128824
field sqrsum 0.01431658728368
field min 4e-007
field max 0.00062381821
statistic Basic.rack[1].node[7].app 	hops
field count 183053
field mean 2.9578591992483
field stddev 0.71091661349794
field sum 541445
field sqrsum 1694033
field min 2
field max 4
statistic Basic.rack[1].node[8].app 	throughput
field count 182715
field mean 91358
field stddev 52745.421554861
field sum 16692476970
field sqrsum 2.0333161838747e+015
field min 1
field max 182715
statistic Basic.rack[1].node[8].app 	"End-to-End Delay"
field count 182715
field mean 0.00019361036676573
field stddev 0.00020064359484192
field sum 35.375518163599
field sqrsum 0.014204740244116
field min 4e-007
field max 0.000609262579
statistic Basic.rack[1].node[8].app 	hops
field count 182715
field mean 2.956500560983
field stddev 0.71108660285681
field sum 540197
field sqrsum 1689481
field min 2
field max 4
statistic Basic.rack[1].node[9].app 	throughput
field count 182366
field mean 91183.5
field stddev 52644.673932887
field sum 16628770161
field sqrsum 2.0216870757107e+015
field min 1
field max 182366
statistic Basic.rack[1].node[9].app 	"End-to-End Delay"
field count 182366
field mean 0.00019415765114314
field stddev 0.00020076433805342
field sum 35.40775420837
field sqrsum 0.014225148332937
field min 4e-007
field max 0.000635113691
statistic Basic.rack[1].node[9].app 	hops
field count 182366
field mean 2.9579197876797
field stddev 0.7113536765483
field sum 539424
field sqrsum 1687854
field min 2
field max 4
statistic Basic.rack[1].eps.queue[0] 	dropsum
field count 280192
field mean 140096.5
field stddev 80884.607649828
field sum 39253918528
field sqrsum 7.3324357114378e+015
field min 1
field max 280192
statistic Basic.rack[1].eps.queue[1] 	dropsum
field count 0
field mean nan
field stddev nan
field sum 0
field sqrsum 0
field min nan
field max nan
statistic Basic.rack[1].eps.queue[2] 	dropsum
field count 0
field mean nan
field stddev nan
field sum 0
field sqrsum 0
field min nan
field max nan
statistic Basic.rack[1].eps.queue[3] 	dropsum
field count 0
field mean nan
field stddev nan
field sum 0
field sqrsum 0
field min nan
field max nan
statistic Basic.rack[2].node[0].app 	throughput
field count 189547
field mean 94774
field stddev 54717.65007442
field sum 17964127378
field sqrsum 2.270036956121e+015
field min 1
field max 189547
statistic Basic.rack[2].node[0].app 	"End-to-End Delay"
field count 189547
field mean 9.2602346316325e-005
field stddev 0.00016774522247894
field sum 17.55249693722
field sqrsum 0.0069589348756657
field min 4e-007
field max 0.000514841372
statistic Basic.rack[2].node[0].app 	hops
field count 189547
field mean 3.2086184429192
field stddev 0.83208024420579
field sum 608184
field sqrsum 2082664
field min 2
field max 4
statistic Basic.rack[2].node[1].app 	throughput
field count 189731
field mean 94866
field stddev 54770.766299186
field sum 17999021046
field sqrsum 2.2766541743928e+015
field min 1
field max 189731
statistic Basic.rack[2].node[1].app 	"End-to-End Delay"
field count 189731
field mean 9.2976728191313e-005
field stddev 0.00016801973389329
field sum 17.640567616466
field sqrsum 0.0069963598757912
field min 4e-007
field max 0.000535190658
statistic Basic.rack[2].node[1].app 	hops
field count 189731
field mean 3.2098918995841
field stddev 0.83333817316037
field sum 609016
field sqrsum 2086634
field min 2
field max 4
statistic Basic.rack[2].node[2].app 	throughput
field count 189984
field mean 94992.5
field stddev 54843.801108238
field sum 18047055120
field sqrsum 2.2857738289638e+015
field min 1
field max 189984
statistic Basic.rack[2].node[2].app 	"End-to-End Delay"
field count 189984
field mean 9.2879030595324e-005
field stddev 0.00016791151588422
field sum 17.645529748622
field sqrsum 0.0069953330563233
field min 4e-007
field max 0.00052721411
statistic Basic.rack[2].node[2].app 	hops
field count 189984
field mean 3.2099439952838
field stddev 0.83192212252304
field sum 609838
field sqrsum 2089032
field min 2
field max 4
statistic Basic.rack[2].node[3].app 	throughput
field count 189393
field mean 94697
field stddev 54673.194103692
field sum 17934948921
field sqrsum 2.2645084989796e+015
field min 1
field max 189393
statistic Basic.rack[2].node[3].app 	"End-to-End Delay"
field count 189393
field mean 9.2404276812928e-005
field stddev 0.0001675416243916
field sum 17.500723198431
field sqrsum 0.0069334122134621
field min 4e-007
field max 0.000545702412
statistic Basic.rack[2].node[3].app 	hops
field count 189393
field mean 3.2056147798493
field stddev 0.83349402268848
field sum 607121
field sqrsum 2077769
field min 2
field max 4
statistic Basic.rack[2].node[4].app 	throughput
field count 189148
field mean 94574.5
field stddev 54602.468695716
field sum 17888577526
field sqrsum 2.2557317374511e+015
field min 1
field max 189148
statistic Basic.rack[2].node[4].app 	"End-to-End Delay"
field count 189148
field mean 9.2861037227394e-005
field stddev 0.00016780966000984
field sum 17.564479469487
field sqrsum 0.0069574508105534
field min 4e-007
field max 0.000544796216
statistic Basic.rack[2].node[4].app 	hops
field count 189148
field mean 3.2162063569269
field stddev 0.82984033554192
field sum 608339
field sqrsum 2086797
field min 2
field max 4
statistic Basic.rack[2].node[5].app 	throughput
field count 189478
field mean 94739.5
field stddev 54697.731490133
field sum 17951050981
field sqrsum 2.2675588088689e+015
field min 1
field max 189478
statistic Basic.rack[2].node[5].app 	"End-to-End Delay"
field count 189478
field mean 9.2679142983825e-005
field stddev 0.00016772014598969
field sum 17.560658654289
field sqrsum 0.0069575037799885
field min 4e-007
field max 0.000535961912
statistic Basic.rack[2].node[5].app 	hops
field count 189478
field mean 3.2119085065285
field stddev 0.83155877379672
field sum 608586
field sqrsum 2085744
field min 2
field max 4
statistic Basic.rack[2].node[6].app 	throughput
field count 189543
field mean 94772
field stddev 54716.495373882
field sum 17963369196
field sqrsum 2.2698932461347e+015
field min 1
field max 189543
statistic Basic.rack[2].node[6].app 	"End-to-End Delay"
field count 189543
field mean 9.236912008553e-005
field stddev 0.00016750043168535
field sum 17.507920128372
field sqrsum 0.0069350563248599
field min 4e-007
field max 0.000558532391
statistic Basic.rack[2].node[6].app 	hops
field count 189543
field mean 3.2064386445292
field stddev 0.83189771297108
field sum 607758
field sqrsum 2079912
field min 2
field max 4
statistic Basic.rack[2].node[7].app 	throughput
field count 188988
field mean 94494.5
field stddev 54556.280674181
field sum 17858326566
field sqrsum 2.250012233479e+015
field min 1
field max 188988
statistic Basic.rack[2].node[7].app 	"End-to-End Delay"
field count 188988
field mean 9.2569910735258e-005
field stddev 0.00016764142604776
field sum 17.494602290035
field sqrsum 0.0069306978453819
field min 4e-007
field max 0.000534555303
statistic Basic.rack[2].node[7].app 	hops
field count 188988
field mean 3.2115319491185
field stddev 0.83117042562413
field sum 606941
field sqrsum 2079771
field min 2
field max 4
statistic Basic.rack[2].node[8].app 	throughput
field count 189418
field mean 94709.5
field stddev 54680.410982057
field sum 17939684071
field sqrsum 2.2654053648018e+015
field min 1
field max 189418
statistic Basic.rack[2].node[8].app 	"End-to-End Delay"
field count 189418
field mean 9.2693332721425e-005
field stddev 0.00016767538874785
field sum 17.557785697427
field sqrsum 0.0069529554439511
field min 4e-007
field max 0.000522399849
statistic Basic.rack[2].node[8].app 	hops
field count 189418
field mean 3.2104393457855
field stddev 0.83214492803495
field sum 608115
field sqrsum 2083481
field min 2
field max 4
statistic Basic.rack[2].node[9].app 	throughput
field count 190488
field mean 95244.5
field stddev 54989.293376075
field sum 18142934316
field sqrsum 2.3040135623022e+015
field min 1
field max 190488
statistic Basic.rack[2].node[9].app 	"End-to-End Delay"
field count 190488
field mean 9.2474741888862e-005
field stddev 0.00016756330961255
field sum 17.615328632926
field sqrsum 0.0069773646113454
field min 4e-007
field max 0.00054189574
statistic Basic.rack[2].node[9].app 	hops
field count 190488
field mean 3.2083228339843
field stddev 0.83229162250045
field sum 611147
field sqrsum 2092709
field min 2
field max 4
statistic Basic.rack[2].eps.queue[0] 	dropsum
field count 0
field mean nan
field stddev nan
field sum 0
field sqrsum 0
field min nan
field max nan
statistic Basic.rack[2].eps.queue[1] 	dropsum
field count 0
field mean nan
field stddev nan
field sum 0
field sqrsum 0
field min nan
field max nan
statistic Basic.rack[2].eps.queue[2] 	dropsum
field count 0
field mean nan
field stddev nan
field sum 0
field sqrsum 0
field min nan
field max nan
statistic Basic.rack[2].eps.queue[3] 	dropsum
field count 0
field mean nan
field stddev nan
field sum 0
field sqrsum 0
field min nan
field max nan
statistic Basic.rack[3].node[0].app 	throughput
field count 190114
field mean 95057.5
field stddev 54881.328875736
field sum 18071761555
field sqrsum 2.2904692747654e+015
field min 1
field max 190114
statistic Basic.rack[3].node[0].app 	"End-to-End Delay"
field count 190114
field mean 9.3029042270921e-005
field stddev 0.0001680441584045
field sum 17.686123342294
field sqrsum 0.0070138935478819
field min 4e-007
field max 0.000551727004
statistic Basic.rack[3].node[0].app 	hops
field count 190114
field mean 3.20961107546
field stddev 0.83286637059427
field sum 610192
field sqrsum 2090354
field min 2
field max 4
statistic Basic.rack[3].node[1].app 	throughput
field count 191298
field mean 95649.5
field stddev 55223.120235097
field sum 18297558051
field sqrsum 2.3335302725461e+015
field min 1
field max 191298
statistic Basic.rack[3].node[1].app 	"End-to-End Delay"
field count 191298
field mean 9.2752829263577e-005
field stddev 0.00016779541458821
field sum 17.743430732464
field sqrsum 0.0070317780466766
field min 4e-007
field max 0.000578362368
statistic Basic.rack[3].node[1].app 	hops
field count 191298
field mean 3.2073936998819
field stddev 0.83165275236822
field sum 613568
field sqrsum 2100264
field min 2
field max 4
statistic Basic.rack[3].node[2].app 	throughput
field count 189778
field mean 94889.5
field stddev 54784.334030512
field sum 18007939531
field sqrsum 2.2783465015226e+015
field min 1
field max 189778
statistic Basic.rack[3].node[2].app 	"End-to-End Delay"
field count 189778
field mean 9.2680853446165e-005
field stddev 0.00016781115341398
field sum 17.588787005306
field sqrsum 0.0069743747906034
field min 4e-007
field max 0.000546709888
statistic Basic.rack[3].node[2].app 	hops
field count 189778
field mean 3.2129382752479
field stddev 0.83126423821943
field sum 609745
field sqrsum 2090209
field min 2
field max 4
statistic Basic.rack[3].node[3].app 	throughput
field count 189287
field mean 94644
field stddev 54642.594539425
field sum 17914878828
field sqrsum 2.2607084174367e+015
field min 1
field max 189287
statistic Basic.rack[3].node[3].app 	"End-to-End Delay"
field count 189287
field mean 9.273395207716e-005
field stddev 0.00016775557557514
field sum 17.553331586829
field sqrsum 0.0069546637658522
field min 4e-007
field max 0.000555016852
statistic Basic.rack[3].node[3].app 	hops
field count 189287
field mean 3.2063691642849
field stddev 0.83251191761953
field sum 606924
field sqrsum 2077212
field min 2
field max 4
statistic Basic.rack[3].node[4].app 	throughput
field count 189680
field mean 94840.5
field stddev 54756.043867321
field sum 17989346040
field sqrsum 2.2748187676935e+015
field min 1
field max 189680
statistic Basic.rack[3].node[4].app 	"End-to-End Delay"
field count 189680
field mean 9.2430107888014e-005
field stddev 0.00016755816588315
field sum 17.532142864199
field sqrsum 0.0069458759455255
field min 4e-007
field max 0.000550881687
statistic Basic.rack[3].node[4].app 	hops
field count 189680
field mean 3.2086935892029
field stddev 0.83194141013682
field sum 608625
field sqrsum 2084173
field min 2
field max 4
statistic Basic.rack[3].node[5].app 	throughput
field count 189562
field mean 94781.5
field stddev 54721.980201439
field sum 17966970703
field sqrsum 2.2705759225916e+015
field min 1
field max 189562
statistic Basic.rack[3].node[5].app 	"End-to-End Delay"
field count 189562
field mean 9.2306837086543e-005
field stddev 0.00016748865427635
field sum 17.497868651799
field sqrsum 0.0069328232549031
field min 4e-007
field max 0.000533057312
statistic Basic.rack[3].node[5].app 	hops
field count 189562
field mean 3.2073358584526
field stddev 0.83111630669915
field sum 607989
field sqrsum 2080965
field min 2
field max 4
statistic Basic.rack[3].node[6].app 	throughput
field count 189335
field mean 94668
field stddev 54656.450945886
field sum 17923965780
field sqrsum 2.2624286819595e+015
field min 1
field max 189335
statistic Basic.rack[3].node[6].app 	"End-to-End Delay"
field count 189335
field mean 9.208192803764e-005
field stddev 0.00016729100673747
field sum 17.434331845007
field sqrsum 0.006904141404928
field min 4e-007
field max 0.00054880071
statistic Basic.rack[3].node[6].app 	hops
field count 189335
field mean 3.2048802387303
field stddev 0.83268516661827
field sum 606796
field sqrsum 2075986
field min 2
field max 4
statistic Basic.rack[3].node[7].app 	throughput
field count 189294
field mean 94647.5
field stddev 54644.615265367
field sum 17916203865
field sqrsum 2.2609592350155e+015
field min 1
field max 189294
statistic Basic.rack[3].node[7].app 	"End-to-End Delay"
field count 189294
field mean 9.1717094122751e-005
field stddev 0.00016705717159995
field sum 17.361495614872
field sqrsum 0.006875153632488
field min 4e-007
field max 0.00056750001
statistic Basic.rack[3].node[7].app 	hops
field count 189294
field mean 3.2061290901983
field stddev 0.83235832694106
field sum 606901
field sqrsum 2076949
field min 2
field max 4
statistic Basic.rack[3].node[8].app 	throughput
field count 190018
field mean 95009.5
field stddev 54853.616062815
field sum 18053515171
field sqrsum 2.2870012483471e+015
field min 1
field max 190018
statistic Basic.rack[3].node[8].app 	"End-to-End Delay"
field count 190018
field mean 9.281929053351e-005
field stddev 0.0001678997229555
field sum 17.637335948596
field sqrsum 0.0069937244690595
field min 4e-007
field max 0.000548717956
statistic Basic.rack[3].node[8].app 	hops
field count 190018
field mean 3.2080592364934
field stddev 0.83333689538143
field sum 609589
field sqrsum 2087555
field min 2
field max 4
statistic Basic.rack[3].node[9].app 	throughput
field count 190187
field mean 95094
field stddev 54902.402160561
field sum 18085642578
field sqrsum 2.2931087652022e+015
field min 1
field max 190187
statistic Basic.rack[3].node[9].app 	"End-to-End Delay"
field count 190187
field mean 9.2411230328525e-005
field stddev 0.00016759584658999
field sum 17.575414662491
field sqrsum 0.0069661800098052
field min 4e-007
field max 0.000562597281
statistic Basic.rack[3].node[9].app 	hops
field count 190187
field mean 3.2063074763259
field stddev 0.83259005265744
field sum 609798
field sqrsum 2087038
field min 2
field max 4
statistic Basic.rack[3].eps.queue[0] 	dropsum
field count 0
field mean nan
field stddev nan
field sum 0
field sqrsum 0
field min nan
field max nan
statistic Basic.rack[3].eps.queue[1] 	dropsum
field count 0
field mean nan
field stddev nan
field sum 0
field sqrsum 0
field min nan
field max nan
statistic Basic.rack[3].eps.queue[2] 	dropsum
field count 0
field mean nan
field stddev nan
field sum 0
field sqrsum 0
field min nan
field max nan
statistic Basic.rack[3].eps.queue[3] 	dropsum
field count 0
field mean nan
field stddev nan
field sum 0
field sqrsum 0
field min nan
field max nan
statistic Basic.rack[4].node[0].app 	throughput
field count 183305
field mean 91653
field stddev 52915.739884273
field sum 16800453165
field sqrsum 2.0530769784246e+015
field min 1
field max 183305
statistic Basic.rack[4].node[0].app 	"End-to-End Delay"
field count 183305
field mean 0.00019458620790006
field stddev 0.00020079620554079
field sum 35.66862483912
field sqrsum 0.01433127771697
field min 4e-007
field max 0.000682562292
statistic Basic.rack[4].node[0].app 	hops
field count 183305
field mean 2.9572024767464
field stddev 0.71198617150688
field sum 542070
field sqrsum 1695932
field min 2
field max 4
statistic Basic.rack[4].node[1].app 	throughput
field count 182220
field mean 91110.5
field stddev 52602.527363236
field sum 16602155310
field sqrsum 2.0168353611106e+015
field min 1
field max 182220
statistic Basic.rack[4].node[1].app 	"End-to-End Delay"
field count 182220
field mean 0.0001952958931441
field stddev 0.00020086429947047
field sum 35.586817648717
field sqrsum 0.014301852171013
field min 4e-007
field max 0.00068490639
statistic Basic.rack[4].node[1].app 	hops
field count 182220
field mean 2.9609318406322
field stddev 0.71039515761466
field sum 539541
field sqrsum 1689503
field min 2
field max 4
statistic Basic.rack[4].node[2].app 	throughput
field count 182647
field mean 91324
field stddev 52725.791645709
field sum 16680054628
field sqrsum 2.0310468517784e+015
field min 1
field max 182647
statistic Basic.rack[4].node[2].app 	"End-to-End Delay"
field count 182647
field mean 0.00019539368544885
field stddev 0.00020085428976509
field sum 35.688070466175
field sqrsum 0.014341609955378
field min 4e-007
field max 0.000660811777
statistic Basic.rack[4].node[2].app 	hops
field count 182647
field mean 2.9598022414822
field stddev 0.71248265099331
field sum 540599
field sqrsum 1692783
field min 2
field max 4
statistic Basic.rack[4].node[3].app 	throughput
field count 182280
field mean 91140.5
field stddev 52619.847871312
field sum 16613090340
field sqrsum 2.0188282758136e+015
field min 1
field max 182280
statistic Basic.rack[4].node[3].app 	"End-to-End Delay"
field count 182280
field mean 0.00019493388778149
field stddev 0.00020077640285552
field sum 35.53254906481
field sqrsum 0.014274376584466
field min 4e-007
field max 0.000683722072
statistic Basic.rack[4].node[3].app 	hops
field count 182280
field mean 2.9590465218345
field stddev 0.71128319868228
field sum 539375
field sqrsum 1688255
field min 2
field max 4
statistic Basic.rack[4].node[4].app 	throughput
field count 183306
field mean 91653.5
field stddev 52916.028559407
field sum 16800636471
field sqrsum 2.0531105795142e+015
field min 1
field max 183306
statistic Basic.rack[4].node[4].app 	"End-to-End Delay"
field count 183306
field mean 0.00019415062067213
field stddev 0.0002006535467627
field sum 35.588973672925
field sqrsum 0.014289818977266
field min 4e-007
field max 0.000664778447
statistic Basic.rack[4].node[4].app 	hops
field count 183306
field mean 2.9576773264378
field stddev 0.71027506042216
field sum 542160
field sqrsum 1696010
field min 2
field max 4
statistic Basic.rack[4].node[5].app 	throughput
field count 181837
field mean 90919
field stddev 52491.964786686
field sum 16532438203
field sqrsum 2.0041448211587e+015
field min 1
field max 181837
statistic Basic.rack[4].node[5].app 	"End-to-End Delay"
field count 181837
field mean 0.00019479966405647
field stddev 0.00020079362261266
field sum 35.421786513037
field sqrsum 0.014231430304591
field min 4e-007
field max 0.000634518848
statistic Basic.rack[4].node[5].app 	hops
field count 181837
field mean 2.9589962438888
field stddev 0.7117744508819
field sum 538055
field sqrsum 1684225
field min 2
field max 4
statistic Basic.rack[4].node[6].app 	throughput
field count 182642
field mean 91321.5
field stddev 52724.348270036
field sum 16679141403
field sqrsum 2.0308800557983e+015
field min 1
field max 182642
statistic Basic.rack[4].node[6].app 	"End-to-End Delay"
field count 182642
field mean 0.00019512621769741
field stddev 0.00020072587614778
field sum 35.63824265269
field sqrsum 0.01431272162525
field min 4e-007
field max 0.000692129539
statistic Basic.rack[4].node[6].app 	hops
field count 182642
field mean 2.9604307880991
field stddev 0.71002970903356
field sum 540699
field sqrsum 1692779
field min 2
field max 4
statistic Basic.rack[4].node[7].app 	throughput
field count 182950
field mean 91475.5
field stddev 52813.260211491
field sum 16735442725
field sqrsum 2.0411717428401e+015
field min 1
field max 182950
statistic Basic.rack[4].node[7].app 	"End-to-End Delay"
field count 182950
field mean 0.0001938074767156
field stddev 0.00020057885145728
field sum 35.45707786512
field sqrsum 0.014232228211391
field min 4e-007
field max 0.000661183221
statistic Basic.rack[4].node[7].app 	hops
field count 182950
field mean 2.9557857338071
field stddev 0.71079543504674
field sum 540761
field sqrsum 1690805
field min 2
field max 4
statistic Basic.rack[4].node[8].app 	throughput
field count 182814
field mean 91407.5
field stddev 52774.000393186
field sum 16710570705
field sqrsum 2.0366230854328e+015
field min 1
field max 182814
statistic Basic.rack[4].node[8].app 	"End-to-End Delay"
field count 182814
field mean 0.00019459597241116
field stddev 0.00020070534681671
field sum 35.574868100373
field sqrsum 0.014286915630483
field min 4e-007
field max 0.000662108294
statistic Basic.rack[4].node[8].app 	hops
field count 182814
field mean 2.9604680166727
field stddev 0.71185919662103
field sum 541215
field sqrsum 1694889
field min 2
field max 4
statistic Basic.rack[4].node[9].app 	throughput
field count 182151
field mean 91076
field stddev 52582.608778949
field sum 16589584476
field sqrsum 2.0145451311201e+015
field min 1
field max 182151
statistic Basic.rack[4].node[9].app 	"End-to-End Delay"
field count 182151
field mean 0.0001955216932673
field stddev 0.00020089699476068
field sum 35.614471950332
field sqrsum 0.01431490345663
field min 4e-007
field max 0.000669887336
statistic Basic.rack[4].node[9].app 	hops
field count 182151
field mean 2.9596872924112
field stddev 0.7111402611127
field sum 539110
field sqrsum 1687714
field min 2
field max 4
statistic Basic.rack[4].eps.queue[0] 	dropsum
field count 0
field mean nan
field stddev nan
field sum 0
field sqrsum 0
field min nan
field max nan
statistic Basic.rack[4].eps.queue[1] 	dropsum
field count 276117
field mean 138059
field stddev 79708.256476353
field sum 38120436903
field sqrsum 7.0171464910427e+015
field min 1
field max 276117
statistic Basic.rack[4].eps.queue[2] 	dropsum
field count 0
field mean nan
field stddev nan
field sum 0
field sqrsum 0
field min nan
field max nan
statistic Basic.rack[4].eps.queue[3] 	dropsum
field count 0
field mean nan
field stddev nan
field sum 0
field sqrsum 0
field min nan
field max nan
statistic Basic.rack[5].node[0].app 	throughput
field count 182471
field mean 91236
field stddev 52674.98482202
field sum 16647924156
field sqrsum 2.025181128421e+015
field min 1
field max 182471
statistic Basic.rack[5].node[0].app 	"End-to-End Delay"
field count 182471
field mean 0.00019490454989537
field stddev 0.0002008671081863
field sum 35.564428123957
field sqrsum 0.014293894543012
field min 4e-007
field max 0.000717343797
statistic Basic.rack[5].node[0].app 	hops
field count 182471
field mean 2.9579440020606
field stddev 0.71037864264411
field sum 539739
field sqrsum 1688599
field min 2
field max 4
statistic Basic.rack[5].node[1].app 	throughput
field count 182938
field mean 91469.5
field stddev 52809.796109876
field sum 16733247391
field sqrsum 2.040770118559e+015
field min 1
field max 182938
statistic Basic.rack[5].node[1].app 	"End-to-End Delay"
field count 182938
field mean 0.00019463861363526
field stddev 0.00020082269183871
field sum 35.606798701207
field sqrsum 0.014308262061713
field min 4e-007
field max 0.00067647331
statistic Basic.rack[5].node[1].app 	hops
field count 182938
field mean 2.9591938252304
field stddev 0.71158363384219
field sum 541349
field sqrsum 1694587
field min 2
field max 4
statistic Basic.rack[5].node[2].app 	throughput
field count 182513
field mean 91257
field stddev 52687.109177673
field sum 16655588841
field sqrsum 2.0265798759546e+015
field min 1
field max 182513
statistic Basic.rack[5].node[2].app 	"End-to-End Delay"
field count 182513
field mean 0.00019444416615259
field stddev 0.00020088389428674
field sum 35.488588097008
field sqrsum 0.014265700037068
field min 4e-007
field max 0.0006515821
statistic Basic.rack[5].node[2].app 	hops
field count 182513
field mean 2.9569893651411
field stddev 0.71104900098251
field sum 539689
field sqrsum 1688131
field min 2
field max 4
statistic Basic.rack[5].node[3].app 	throughput
field count 182437
field mean 91219
field stddev 52665.169867443
field sum 16641720703
field sqrsum 2.0240492805024e+015
field min 1
field max 182437
statistic Basic.rack[5].node[3].app 	"End-to-End Delay"
field count 182437
field mean 0.00019488383169367
field stddev 0.00020085240774387
field sum 35.554021602699
field sqrsum 0.014288680463526
field min 4e-007
field max 0.000719355054
statistic Basic.rack[5].node[3].app 	hops
field count 182437
field mean 2.9596463436693
field stddev 0.71195411817975
field sum 539949
field sqrsum 1690531
field min 2
field max 4
statistic Basic.rack[5].node[4].app 	throughput
field count 182047
field mean 91024
field stddev 52552.586564951
field sum 16570646128
field sqrsum 2.0110964673247e+015
field min 1
field max 182047
statistic Basic.rack[5].node[4].app 	"End-to-End Delay"
field count 182047
field mean 0.00019444576629953
field stddev 0.00020086473264697
field sum 35.39826841753
field sqrsum 0.014227988003085
field min 4e-007
field max 0.000711468592
statistic Basic.rack[5].node[4].app 	hops
field count 182047
field mean 2.9590874883959
field stddev 0.71195431072655
field sum 538693
field sqrsum 1686315
field min 2
field max 4
statistic Basic.rack[5].node[5].app 	throughput
field count 181941
field mean 90971
field stddev 52521.987000684
field sum 16551354711
field sqrsum 2.0075855354343e+015
field min 1
field max 181941
statistic Basic.rack[5].node[5].app 	"End-to-End Delay"
field count 181941
field mean 0.00019451757997752
field stddev 0.00020075270827956
field sum 35.390723018689
field sqrsum 0.014216599974704
field min 4e-007
field max 0.000715735172
statistic Basic.rack[5].node[5].app 	hops
field count 181941
field mean 2.957321329442
field stddev 0.71122070505573
field sum 538058
field sqrsum 1683242
field min 2
field max 4
statistic Basic.rack[5].node[6].app 	throughput
field count 182774
field mean 91387.5
field stddev 52762.453387802
field sum 16703258925
field sqrsum 2.0352865322583e+015
field min 1
field max 182774
statistic Basic.rack[5].node[6].app 	"End-to-End Delay"
field count 182774
field mean 0.00019457457259824
field stddev 0.00020083213016719
field sum 35.56317293207
field sqrsum 0.014291572103762
field min 4e-007
field max 0.000644882243
statistic Basic.rack[5].node[6].app 	hops
field count 182774
field mean 2.9572641622988
field stddev 0.71166762997662
field sum 540511
field sqrsum 1691003
field min 2
field max 4
statistic Basic.rack[5].node[7].app 	throughput
field count 182470
field mean 91235.5
field stddev 52674.696146885
field sum 16647741685
field sqrsum 2.0251478327552e+015
field min 1
field max 182470
statistic Basic.rack[5].node[7].app 	"End-to-End Delay"
field count 182470
field mean 0.00019422599174581
field stddev 0.00020082858139207
field sum 35.440416713858
field sqrsum 0.014242811524913
field min 4e-007
field max 0.000724132921
statistic Basic.rack[5].node[7].app 	hops
field count 182470
field mean 2.9582780731079
field stddev 0.71147565384027
field sum 539797
field sqrsum 1689235
field min 2
field max 4
statistic Basic.rack[5].node[8].app 	throughput
field count 181225
field mean 90613
field stddev 52315.295604313
field sum 16421340925
field sqrsum 1.9839771465357e+015
field min 1
field max 181225
statistic Basic.rack[5].node[8].app 	"End-to-End Delay"
field count 181225
field mean 0.00019480616636721
field stddev 0.00020088354981526
field sum 35.303747499898
field sqrsum 0.014190537355917
field min 4e-007
field max 0.000707216208
statistic Basic.rack[5].node[8].app 	hops
field count 181225
field mean 2.9597516898883
field stddev 0.71174423884618
field sum 536381
field sqrsum 1679359
field min 2
field max 4
statistic Basic.rack[5].node[9].app 	throughput
field count 182219
field mean 91110
field stddev 52602.238688101
field sum 16601973090
field sqrsum 2.0168021569822e+015
field min 1
field max 182219
statistic Basic.rack[5].node[9].app 	"End-to-End Delay"
field count 182219
field mean 0.00019441774926644
field stddev 0.00020083441307991
field sum 35.426607853581
field sqrsum 0.014237226264481
field min 4e-007
field max 0.000721117772
statistic Basic.rack[5].node[9].app 	hops
field count 182219
field mean 2.9586651227369
field stddev 0.71110666368379
field sum 539125
field sqrsum 1687233
field min 2
field max 4
statistic Basic.rack[5].eps.queue[0] 	dropsum
field count 278636
field mean 139318.5
field stddev 80435.429140398
field sum 38819149566
field sqrsum 7.2109546453645e+015
field min 1
field max 278636
statistic Basic.rack[5].eps.queue[1] 	dropsum
field count 0
field mean nan
field stddev nan
field sum 0
field sqrsum 0
field min nan
field max nan
statistic Basic.rack[5].eps.queue[2] 	dropsum
field count 0
field mean nan
field stddev nan
field sum 0
field sqrsum 0
field min nan
field max nan
statistic Basic.rack[5].eps.queue[3] 	dropsum
field count 0
field mean nan
field stddev nan
field sum 0
field sqrsum 0
field min nan
field max nan
statistic Basic.rack[6].node[0].app 	throughput
field count 189857
field mean 94929
field stddev 54807.139366145
field sum 18022935153
field sqrsum 2.2811929405405e+015
field min 1
field max 189857
statistic Basic.rack[6].node[0].app 	"End-to-End Delay"
field count 189857
field mean 9.3179003638496e-005
field stddev 0.00016806389845363
field sum 17.690686093794
field sqrsum 0.0070109732087026
field min 4e-007
field max 0.000559622683
statistic Basic.rack[6].node[0].app 	hops
field count 189857
field mean 3.2113116714159
field stddev 0.83212821011779
field sum 609690
field sqrsum 2089368
field min 2
field max 4
statistic Basic.rack[6].node[1].app 	throughput
field count 190348
field mean 95174.5
field stddev 54948.878857231
field sum 18116275726
field sqrsum 2.2989372733537e+015
field min 1
field max 190348
statistic Basic.rack[6].node[1].app 	"End-to-End Delay"
field count 190348
field mean 9.2515098901214e-005
field stddev 0.00016762917484779
field sum 17.610064045648
field sqrsum 0.0069778600067385
field min 4e-007
field max 0.000555210863
statistic Basic.rack[6].node[1].app 	hops
field count 190348
field mean 3.210257002963
field stddev 0.83157787929573
field sum 611066
field sqrsum 2093308
field min 2
field max 4
statistic Basic.rack[6].node[2].app 	throughput
field count 189893
field mean 94947
field stddev 54817.53167099
field sum 18029770671
field sqrsum 2.2824908379424e+015
field min 1
field max 189893
statistic Basic.rack[6].node[2].app 	"End-to-End Delay"
field count 189893
field mean 9.2414474344374e-005
field stddev 0.00016749738195393
field sum 17.548861776676
field sqrsum 0.0069492597188237
field min 4e-007
field max 0.000567258092
statistic Basic.rack[6].node[2].app 	hops
field count 189893
field mean 3.2102763135029
field stddev 0.83082779418696
field sum 609609
field sqrsum 2088091
field min 2
field max 4
statistic Basic.rack[6].node[3].app 	throughput
field count 190251
field mean 95126
field stddev 54920.877369175
field sum 18097816626
field sqrsum 2.2954245065476e+015
field min 1
field max 190251
statistic Basic.rack[6].node[3].app 	"End-to-End Delay"
field count 190251
field mean 9.2701488304786e-005
field stddev 0.00016776033716226
field sum 17.636550851474
field sqrsum 0.0069892412328871
field min 4e-007
field max 0.000557868696
statistic Basic.rack[6].node[3].app 	hops
field count 190251
field mean 3.2092761667481
field stddev 0.83279264975254
field sum 610568
field sqrsum 2091428
field min 2
field max 4
statistic Basic.rack[6].node[4].app 	throughput
field count 189724
field mean 94862.5
field stddev 54768.745573243
field sum 17997692950
field sqrsum 2.2764021973948e+015
field min 1
field max 189724
statistic Basic.rack[6].node[4].app 	"End-to-End Delay"
field count 189724
field mean 9.3027115657174e-005
field stddev 0.00016804589372192
field sum 17.649476490942
field sqrsum 0.0069995478261992
field min 4e-007
field max 0.000563055526
statistic Basic.rack[6].node[4].app 	hops
field count 189724
field mean 3.2109959730978
field stddev 0.8334109276955
field sum 609203
field sqrsum 2087925
field min 2
field max 4
statistic Basic.rack[6].node[5].app 	throughput
field count 190668
field mean 95334.5
field stddev 55041.254900302
field sum 18177238446
field sqrsum 2.3105511924274e+015
field min 1
field max 190668
statistic Basic.rack[6].node[5].app 	"End-to-End Delay"
field count 190668
field mean 9.2740778904807e-005
field stddev 0.00016778096192313
field sum 17.682698832222
field sqrsum 0.0070072693387104
field min 4e-007
field max 0.000576625301
statistic Basic.rack[6].node[5].app 	hops
field count 190668
field mean 3.2089128747351
field stddev 0.83352128773379
field sum 611837
field sqrsum 2095799
field min 2
field max 4
statistic Basic.rack[6].node[6].app 	throughput
field count 189137
field mean 94569
field stddev 54599.293269236
field sum 17886496953
field sqrsum 2.255338211632e+015
field min 1
field max 189137
statistic Basic.rack[6].node[6].app 	"End-to-End Delay"
field count 189137
field mean 9.2456128558731e-005
field stddev 0.00016754333007024
field sum 17.486874787213
field sqrsum 0.0069259614160339
field min 4e-007
field max 0.000574861719
statistic Basic.rack[6].node[6].app 	hops
field count 189137
field mean 3.2117459830705
field stddev 0.83153694449757
field sum 607460
field sqrsum 2081786
field min 2
field max 4
statistic Basic.rack[6].node[7].app 	throughput
field count 189313
field mean 94657
field stddev 54650.100092925
field sum 17919800641
field sqrsum 2.2616401191e+015
field min 1
field max 189313
statistic Basic.rack[6].node[7].app 	"End-to-End Delay"
field count 189313
field mean 9.3693455181072e-005
field stddev 0.00016842120490133
field sum 17.737389080694
field sqrsum 0.0070318450951853
field min 4e-007
field max 0.000555368922
statistic Basic.rack[6].node[7].app 	hops
field count 189313
field mean 3.2115385631203
field stddev 0.8325623393012
field sum 607986
field sqrsum 2083794
field min 2
field max 4
statistic Basic.rack[6].node[8].app 	throughput
field count 189578
field mean 94789.5
field stddev 54726.599003592
field sum 17970003831
field sqrsum 2.2711509141835e+015
field min 1
field max 189578
statistic Basic.rack[6].node[8].app 	"End-to-End Delay"
field count 189578
field mean 9.2593576120012e-005
field stddev 0.00016761225449795
field sum 17.55370497368
field sqrsum 0.0069513115045629
field min 4e-007
field max 0.000565768493
statistic Basic.rack[6].node[8].app 	hops
field count 189578
field mean 3.2065798774119
field stddev 0.83308648777199
field sum 607897
field sqrsum 2080843
field min 2
field max 4
statistic Basic.rack[6].node[9].app 	throughput
field count 189982
field mean 94991.5
field stddev 54843.223757969
field sum 18046675153
field sqrsum 2.2857016415032e+015
field min 1
field max 189982
statistic Basic.rack[6].node[9].app 	"End-to-End Delay"
field count 189982
field mean 9.2955926453209e-005
field stddev 0.00016790872090485
field sum 17.659952819434
field sqrsum 0.0069977959276395
field min 4e-007
field max 0.000562966154
statistic Basic.rack[6].node[9].app 	hops
field count 189982
field mean 3.2119042856692
field stddev 0.83234077124179
field sum 610204
field sqrsum 2091534
field min 2
field max 4
statistic Basic.rack[6].eps.queue[0] 	dropsum
field count 0
field mean nan
field stddev nan
field sum 0
field sqrsum 0
field min nan
field max nan
statistic Basic.rack[6].eps.queue[1] 	dropsum
field count 0
field mean nan
field stddev nan
field sum 0
field sqrsum 0
field min nan
field max nan
statistic Basic.rack[6].eps.queue[2] 	dropsum
field count 0
field mean nan
field stddev nan
field sum 0
field sqrsum 0
field min nan
field max nan
statistic Basic.rack[6].eps.queue[3] 	dropsum
field count 0
field mean nan
field stddev nan
field sum 0
field sqrsum 0
field min nan
field max nan
statistic Basic.rack[7].node[0].app 	throughput
field count 188811
field mean 94406
field stddev 54505.185175357
field sum 17824891266
field sqrsum 2.2436963048469e+015
field min 1
field max 188811
statistic Basic.rack[7].node[0].app 	"End-to-End Delay"
field count 188811
field mean 9.2434154526649e-005
field stddev 0.000167580230706
field sum 17.452585150331
field sqrsum 0.0069155914310048
field min 4e-007
field max 0.000540617864
statistic Basic.rack[7].node[0].app 	hops
field count 188811
field mean 3.2062538729205
field stddev 0.83231199840042
field sum 605376
field sqrsum 2071786
field min 2
field max 4
statistic Basic.rack[7].node[1].app 	throughput
field count 189553
field mean 94777
field stddev 54719.382125227
field sum 17965264681
field sqrsum 2.2702525324733e+015
field min 1
field max 189553
statistic Basic.rack[7].node[1].app 	"End-to-End Delay"
field count 189553
field mean 9.2503894789813e-005
field stddev 0.00016773346376868
field sum 17.534390769093
field sqrsum 0.0069549530011365
field min 4e-007
field max 0.000529770003
statistic Basic.rack[7].node[1].app 	hops
field count 189553
field mean 3.2082847541321
field stddev 0.83301792890232
field sum 608140
field sqrsum 2082620
field min 2
field max 4
statistic Basic.rack[7].node[2].app 	throughput
field count 189310
field mean 94655.5
field stddev 54649.234067521
field sum 17919232705
field sqrsum 2.2615326019999e+015
field min 1
field max 189310
statistic Basic.rack[7].node[2].app 	"End-to-End Delay"
field count 189310
field mean 9.3318697831614e-005
field stddev 0.00016828148208555
field sum 17.666162686503
field sqrsum 0.0070095599759042
field min 4e-007
field max 0.000540506513
statistic Basic.rack[7].node[2].app 	hops
field count 189310
field mean 3.2097459193915
field stddev 0.83188058437566
field sum 607637
field sqrsum 2081367
field min 2
field max 4
statistic Basic.rack[7].node[3].app 	throughput
field count 189226
field mean 94613.5
field stddev 54624.985356215
field sum 17903334151
field sqrsum 2.2585235064828e+015
field min 1
field max 189226
statistic Basic.rack[7].node[3].app 	"End-to-End Delay"
field count 189226
field mean 9.2807450317342e-005
field stddev 0.0001678353014591
field sum 17.561582593749
field sqrsum 0.0069600657695557
field min 4e-007
field max 0.000540270746
statistic Basic.rack[7].node[3].app 	hops
field count 189226
field mean 3.2109858053333
field stddev 0.83113734505254
field sum 607602
field sqrsum 2081716
field min 2
field max 4
statistic Basic.rack[7].node[4].app 	throughput
field count 189665
field mean 94833
field stddev 54751.713740302
field sum 17986500945
field sqrsum 2.2742791299893e+015
field min 1
field max 189665
statistic Basic.rack[7].node[4].app 	"End-to-End Delay"
field count 189665
field mean 9.2729710084792e-005
field stddev 0.00016779938734845
field sum 17.587580463232
field sqrsum 0.0069711911432498
field min 4e-007
field max 0.000545099382
statistic Basic.rack[7].node[4].app 	hops
field count 189665
field mean 3.2090475311734
field stddev 0.83152617092153
field sum 608644
field sqrsum 2084308
field min 2
field max 4
statistic Basic.rack[7].node[5].app 	throughput
field count 190207
field mean 95104
field stddev 54908.175663253
field sum 18089446528
field sqrsum 2.293832266983e+015
field min 1
field max 190207
statistic Basic.rack[7].node[5].app 	"End-to-End Delay"
field count 190207
field mean 9.2576052327683e-005
field stddev 0.00016771217639733
field sum 17.608613185092
field sqrsum 0.0069801312159746
field min 4e-007
field max 0.000531228426
statistic Basic.rack[7].node[5].app 	hops
field count 190207
field mean 3.2109648961395
field stddev 0.83205830224252
field sum 610748
field sqrsum 2092774
field min 2
field max 4
statistic Basic.rack[7].node[6].app 	throughput
field count 189722
field mean 94861.5
field stddev 54768.168222974
field sum 17997313503
field sqrsum 2.2763302073819e+015
field min 1
field max 189722
statistic Basic.rack[7].node[6].app 	"End-to-End Delay"
field count 189722
field mean 9.2255572086443e-005
field stddev 0.00016746926949596
field sum 17.502911647384
field sqrsum 0.0069356479882677
field min 4e-007
field max 0.000535191982
statistic Basic.rack[7].node[6].app 	hops
field count 189722
field mean 3.2094380198396
field stddev 0.83095895068244
field sum 608901
field sqrsum 2085231
field min 2
field max 4
statistic Basic.rack[7].node[7].app 	throughput
field count 189966
field mean 94983.5
field stddev 54838.604955816
field sum 18043635561
field sqrsum 2.2851241965325e+015
field min 1
field max 189966
statistic Basic.rack[7].node[7].app 	"End-to-End Delay"
field count 189966
field mean 9.2416282053588e-005
field stddev 0.00016760797522324
field sum 17.555951436592
field sqrsum 0.0069590348626181
field min 4e-007
field max 0.000538780802
statistic Basic.rack[7].node[7].app 	hops
field count 189966
field mean 3.2075371382247
field stddev 0.83305758251169
field sum 609323
field sqrsum 2086259
field min 2
field max 4
statistic Basic.rack[7].node[8].app 	throughput
field count 189553
field mean 94777
field stddev 54719.382125227
field sum 17965264681
field sqrsum 2.2702525324733e+015
field min 1
field max 189553
statistic Basic.rack[7].node[8].app 	"End-to-End Delay"
field count 189553
field mean 9.2371947618159e-005
field stddev 0.00016755515394056
field sum 17.509379786865
field sqrsum 0.0069389966599208
field min 4e-007
field max 0.000561567886
statistic Basic.rack[7].node[8].app 	hops
field count 189553
field mean 3.207403734048
field stddev 0.83258215996483
field sum 607973
field sqrsum 2081411
field min 2
field max 4
statistic Basic.rack[7].node[9].app 	throughput
field count 189749
field mean 94875
field stddev 54775.962451608
field sum 18002436375
field sqrsum 2.2773022006254e+015
field min 1
field max 189749
statistic Basic.rack[7].node[9].app 	"End-to-End Delay"
field count 189749
field mean 9.2572503525002e-005
field stddev 0.00016768869615543
field sum 17.565539971366
field sqrsum 0.0069617046726943
field min 4e-007
field max 0.000554550748
statistic Basic.rack[7].node[9].app 	hops
field count 189749
field mean 3.2109892542253
field stddev 0.83112516951747
field sum 609282
field sqrsum 2087470
field min 2
field max 4
statistic Basic.rack[7].eps.queue[0] 	dropsum
field count 0
field mean nan
field stddev nan
field sum 0
field sqrsum 0
field min nan
field max nan
statistic Basic.rack[7].eps.queue[1] 	dropsum
field count 0
field mean nan
field stddev nan
field sum 0
field sqrsum 0
field min nan
field max nan
statistic Basic.rack[7].eps.queue[2] 	dropsum
field count 0
field mean nan
field stddev nan
field sum 0
field sqrsum 0
field min nan
field max nan
statistic Basic.rack[7].eps.queue[3] 	dropsum
field count 0
field mean nan
field stddev nan
field sum 0
field sqrsum 0
field min nan
field max nan
statistic Basic.rack[8].node[0].app 	throughput
field count 183107
field mean 91554
field stddev 52858.582207623
field sum 16764178278
field sqrsum 2.0464311826926e+015
field min 1
field max 183107
statistic Basic.rack[8].node[0].app 	"End-to-End Delay"
field count 183107
field mean 0.00019486365527107
field stddev 0.00020098806239939
field sum 35.68089932572
field sqrsum 0.014349697287851
field min 4e-007
field max 0.000630847222
statistic Basic.rack[8].node[0].app 	hops
field count 183107
field mean 2.9612357801722
field stddev 0.71263008726616
field sum 542223
field sqrsum 1698639
field min 2
field max 4
statistic Basic.rack[8].node[1].app 	throughput
field count 182433
field mean 91217
field stddev 52664.015166905
field sum 16640990961
field sqrsum 2.0239161496557e+015
field min 1
field max 182433
statistic Basic.rack[8].node[1].app 	"End-to-End Delay"
field count 182433
field mean 0.00019473767879989
field stddev 0.00020079132189715
field sum 35.5265789565
field sqrsum 0.014273502733384
field min 4e-007
field max 0.000626984606
statistic Basic.rack[8].node[1].app 	hops
field count 182433
field mean 2.9579626493014
field stddev 0.71099771983917
field sum 539630
field sqrsum 1688428
field min 2
field max 4
statistic Basic.rack[8].node[2].app 	throughput
field count 182843
field mean 91422
field stddev 52782.371972089
field sum 16715872746
field sqrsum 2.0375924522888e+015
field min 1
field max 182843
statistic Basic.rack[8].node[2].app 	"End-to-End Delay"
field count 182843
field mean 0.00019557171606727
field stddev 0.00020102037001789
field sum 35.758919280887
field sqrsum 0.014381930173256
field min 4e-007
field max 0.000633479489
statistic Basic.rack[8].node[2].app 	hops
field count 182843
field mean 2.962990106266
field stddev 0.71226073492003
field sum 541762
field sqrsum 1697994
field min 2
field max 4
statistic Basic.rack[8].node[3].app 	throughput
field count 181926
field mean 90963.5
field stddev 52517.656873665
field sum 16548625701
field sqrsum 2.0070890357287e+015
field min 1
field max 181926
statistic Basic.rack[8].node[3].app 	"End-to-End Delay"
field count 181926
field mean 0.00019490820289228
field stddev 0.00020089418087314
field sum 35.45886971938
field sqrsum 0.014253439575584
field min 4e-007
field max 0.000638084583
statistic Basic.rack[8].node[3].app 	hops
field count 181926
field mean 2.9594890230094
field stddev 0.71119528316303
field sum 538408
field sqrsum 1685430
field min 2
field max 4
statistic Basic.rack[8].node[4].app 	throughput
field count 182693
field mean 91347
field stddev 52739.0707019
field sum 16688457471
field sqrsum 2.0325818033188e+015
field min 1
field max 182693
statistic Basic.rack[8].node[4].app 	"End-to-End Delay"
field count 182693
field mean 0.00019530021028871
field stddev 0.00020094483274462
field sum 35.679981318275
field sqrsum 0.014345196298846
field min 4e-007
field max 0.000625032319
statistic Basic.rack[8].node[4].app 	hops
field count 182693
field mean 2.962111301473
field stddev 0.71051902953842
field sum 541157
field sqrsum 1695197
field min 2
field max 4
statistic Basic.rack[8].node[5].app 	throughput
field count 182861
field mean 91431
field stddev 52787.568124512
field sum 16719164091
field sqrsum 2.0381942829509e+015
field min 1
field max 182861
statistic Basic.rack[8].node[5].app 	"End-to-End Delay"
field count 182861
field mean 0.00019603865366309
field stddev 0.00020110448342318
field sum 35.847824247486
field sqrsum 0.014422968605654
field min 4e-007
field max 0.000622625164
statistic Basic.rack[8].node[5].app 	hops
field count 182861
field mean 2.9644155943586
field stddev 0.7123673212888
field sum 542076
field sqrsum 1699734
field min 2
field max 4
statistic Basic.rack[8].node[6].app 	throughput
field count 182016
field mean 91008.5
field stddev 52543.637635779
field sum 16565003136
field sqrsum 2.0100692622025e+015
field min 1
field max 182016
statistic Basic.rack[8].node[6].app 	"End-to-End Delay"
field count 182016
field mean 0.00019636735780787
field stddev 0.00020107867804936
field sum 35.742000998758
field sqrsum 0.01437790831584
field min 4e-007
field max 0.000647567195
statistic Basic.rack[8].node[6].app 	hops
field count 182016
field mean 2.9621956311533
field stddev 0.71224478270206
field sum 539167
field sqrsum 1689453
field min 2
field max 4
statistic Basic.rack[8].node[7].app 	throughput
field count 182055
field mean 91028
field stddev 52554.895966028
field sum 16572102540
field sqrsum 2.011361609314e+015
field min 1
field max 182055
statistic Basic.rack[8].node[7].app 	"End-to-End Delay"
field count 182055
field mean 0.00019469678321389
field stddev 0.00020082388648116
field sum 35.445522868005
field sqrsum 0.014243409589752
field min 4e-007
field max 0.000628152872
statistic Basic.rack[8].node[7].app 	hops
field count 182055
field mean 2.9592540715718
field stddev 0.71214102536546
field sum 538747
field sqrsum 1686617
field min 2
field max 4
statistic Basic.rack[8].node[8].app 	throughput
field count 181689
field mean 90845
field stddev 52449.240866766
field sum 16505537205
field sqrsum 1.9992552013386e+015
field min 1
field max 181689
statistic Basic.rack[8].node[8].app 	"End-to-End Delay"
field count 181689
field mean 0.00019470693391722
field stddev 0.000200954147307
field sum 35.376108116486
field sqrsum 0.014225001799876
field min 4e-007
field max 0.000635732164
statistic Basic.rack[8].node[8].app 	hops
field count 181689
field mean 2.9597388944845
field stddev 0.71213468129858
field sum 537752
field sqrsum 1683746
field min 2
field max 4
statistic Basic.rack[8].node[9].app 	throughput
field count 182032
field mean 91016.5
field stddev 52548.256437932
field sum 16567915528
field sqrsum 2.0105993889004e+015
field min 1
field max 182032
statistic Basic.rack[8].node[9].app 	"End-to-End Delay"
field count 182032
field mean 0.00019470800504177
field stddev 0.00020079018018256
field sum 35.443087573763
field sqrsum 0.014239941446908
field min 4e-007
field max 0.000627324458
statistic Basic.rack[8].node[9].app 	hops
field count 182032
field mean 2.9574470422783
field stddev 0.71036572219182
field sum 538350
field sqrsum 1683998
field min 2
field max 4
statistic Basic.rack[8].eps.queue[0] 	dropsum
field count 0
field mean nan
field stddev nan
field sum 0
field sqrsum 0
field min nan
field max nan
statistic Basic.rack[8].eps.queue[1] 	dropsum
field count 279671
field mean 139836
field stddev 80734.207904704
field sum 39108073956
field sqrsum 7.2916091369236e+015
field min 1
field max 279671
statistic Basic.rack[8].eps.queue[2] 	dropsum
field count 0
field mean nan
field stddev nan
field sum 0
field sqrsum 0
field min nan
field max nan
statistic Basic.rack[8].eps.queue[3] 	dropsum
field count 0
field mean nan
field stddev nan
field sum 0
field sqrsum 0
field min nan
field max nan
statistic Basic.rack[9].node[0].app 	throughput
field count 182518
field mean 91259.5
field stddev 52688.552553346
field sum 16656501421
field sqrsum 2.0267464364059e+015
field min 1
field max 182518
statistic Basic.rack[9].node[0].app 	"End-to-End Delay"
field count 182518
field mean 0.00019536916972461
field stddev 0.0002010766881775
field sum 35.658390119796
field sqrsum 0.014346047214047
field min 4e-007
field max 0.000622402765
statistic Basic.rack[9].node[0].app 	hops
field count 182518
field mean 2.9595053638545
field stddev 0.71290670346893
field sum 540163
field sqrsum 1691377
field min 2
field max 4
statistic Basic.rack[9].node[1].app 	throughput
field count 182746
field mean 91373.5
field stddev 52754.370484034
field sum 16698141631
field sqrsum 2.0343512930464e+015
field min 1
field max 182746
statistic Basic.rack[9].node[1].app 	"End-to-End Delay"
field count 182746
field mean 0.00019436602292218
field stddev 0.00020089220882536
field sum 35.519613224937
field sqrsum 0.014278970110688
field min 4e-007
field max 0.000613307213
statistic Basic.rack[9].node[1].app 	hops
field count 182746
field mean 2.956874569074
field stddev 0.71242122447907
field sum 540357
field sqrsum 1690519
field min 2
field max 4
statistic Basic.rack[9].node[2].app 	throughput
field count 181930
field mean 90965.5
field stddev 52518.811574203
field sum 16549353415
field sqrsum 2.0072214276451e+015
field min 1
field max 181930
statistic Basic.rack[9].node[2].app 	"End-to-End Delay"
field count 181930
field mean 0.00019535094596223
field stddev 0.00020094300766754
field sum 35.540197598908
field sqrsum 0.014288757180222
field min 4e-007
field max 0.000610669971
statistic Basic.rack[9].node[2].app 	hops
field count 181930
field mean 2.9612598252075
field stddev 0.71202757640526
field sum 538742
field sqrsum 1687590
field min 2
field max 4
statistic Basic.rack[9].node[3].app 	throughput
field count 181659
field mean 90830
field stddev 52440.580612728
field sum 16500086970
field sqrsum 1.9982650326178e+015
field min 1
field max 181659
statistic Basic.rack[9].node[3].app 	"End-to-End Delay"
field count 181659
field mean 0.0001955778720884
field stddev 0.00020093624029153
field sum 35.528480665707
field sqrsum 0.014283094094256
field min 4e-007
field max 0.000613881781
statistic Basic.rack[9].node[3].app 	hops
field count 181659
field mean 2.9621268420502
field stddev 0.71253713691516
field sum 538097
field sqrsum 1686141
field min 2
field max 4
statistic Basic.rack[9].node[4].app 	throughput
field count 182618
field mean 91309.5
field stddev 52717.420066805
field sum 16674758271
field sqrsum 2.0300795622084e+015
field min 1
field max 182618
statistic Basic.rack[9].node[4].app 	"End-to-End Delay"
field count 182618
field mean 0.00019474031350372
field stddev 0.0002008635428668
field sum 35.563086571422
field sqrsum 0.014293461849805
field min 4e-007
field max 0.000605725259
statistic Basic.rack[9].node[4].app 	hops
field count 182618
field mean 2.957660252549
field stddev 0.71162318560636
field sum 540122
field sqrsum 1689976
field min 2
field max 4
statistic Basic.rack[9].node[5].app 	throughput
field count 181436
field mean 90718.5
field stddev 52376.206057713
field sum 16459601766
field sqrsum 1.9909150238779e+015
field min 1
field max 181436
statistic Basic.rack[9].node[5].app 	"End-to-End Delay"
field count 181436
field mean 0.00019476510872119
field stddev 0.00020084527681585
field sum 35.337402265939
field sqrsum 0.014201367747902
field min 4e-007
field max 0.000601626967
statistic Basic.rack[9].node[5].app 	hops
field count 181436
field mean 2.958100928151
field stddev 0.711597734325
field sum 536706
field sqrsum 1679504
field min 2
field max 4
statistic Basic.rack[9].node[6].app 	throughput
field count 182074
field mean 91037.5
field stddev 52560.380793585
field sum 16575561775
field sqrsum 2.0119914149348e+015
field min 1
field max 182074
statistic Basic.rack[9].node[6].app 	"End-to-End Delay"
field count 182074
field mean 0.00019553067515884
field stddev 0.00020088205560208
field sum 35.601052148871
field sqrsum 0.014308398823704
field min 4e-007
field max 0.000599580576
statistic Basic.rack[9].node[6].app 	hops
field count 182074
field mean 2.9595109680679
field stddev 0.71092966192298
field sum 538850
field sqrsum 1686756
field min 2
field max 4
statistic Basic.rack[9].node[7].app 	throughput
field count 182635
field mean 91318
field stddev 52722.327544093
field sum 16677862930
field sqrsum 2.030646556768e+015
field min 1
field max 182635
statistic Basic.rack[9].node[7].app 	"End-to-End Delay"
field count 182635
field mean 0.00019489577851297
field stddev 0.00020094033498404
field sum 35.594790508717
field sqrsum 0.014311490753433
field min 4e-007
field max 0.000608978011
statistic Basic.rack[9].node[7].app 	hops
field count 182635
field mean 2.9617050401073
field stddev 0.71279531812158
field sum 540911
field sqrsum 1694811
field min 2
field max 4
statistic Basic.rack[9].node[8].app 	throughput
field count 182386
field mean 91193.5
field stddev 52650.447435579
field sum 16632417691
field sqrsum 2.0223522994664e+015
field min 1
field max 182386
statistic Basic.rack[9].node[8].app 	"End-to-End Delay"
field count 182386
field mean 0.00019500140860092
field stddev 0.00020094297282096
field sum 35.565526909087
field sqrsum 0.014299683660416
field min 4e-007
field max 0.000602513468
statistic Basic.rack[9].node[8].app 	hops
field count 182386
field mean 2.9580230938778
field stddev 0.7120448296964
field sum 539502
field sqrsum 1688330
field min 2
field max 4
statistic Basic.rack[9].node[9].app 	throughput
field count 182021
field mean 91011
field stddev 52545.081011451
field sum 16565913231
field sqrsum 2.0102349167843e+015
field min 1
field max 182021
statistic Basic.rack[9].node[9].app 	"End-to-End Delay"
field count 182021
field mean 0.0001953184700824
field stddev 0.00020099005545943
field sum 35.552063242868
field sqrsum 0.01429703697655
field min 4e-007
field max 0.000618086223
statistic Basic.rack[9].node[9].app 	hops
field count 182021
field mean 2.9628779096917
field stddev 0.71052553335161
field sum 539306
field sqrsum 1689790
field min 2
field max 4
statistic Basic.rack[9].eps.queue[0] 	dropsum
field count 278744
field mean 139372.5
field stddev 80466.606054934
field sum 38849248140
field sqrsum 7.2193428321068e+015
field min 1
field max 278744
statistic Basic.rack[9].eps.queue[1] 	dropsum
field count 0
field mean nan
field stddev nan
field sum 0
field sqrsum 0
field min nan
field max nan
statistic Basic.rack[9].eps.queue[2] 	dropsum
field count 0
field mean nan
field stddev nan
field sum 0
field sqrsum 0
field min nan
field max nan
statistic Basic.rack[9].eps.queue[3] 	dropsum
field count 0
field mean nan
field stddev nan
field sum 0
field sqrsum 0
field min nan
field max nan
statistic Basic.rack[10].node[0].app 	throughput
field count 189779
field mean 94890
field stddev 54784.622705646
field sum 18008129310
field sqrsum 2.2783825175914e+015
field min 1
field max 189779
statistic Basic.rack[10].node[0].app 	"End-to-End Delay"
field count 189779
field mean 9.2601904814851e-005
field stddev 0.00016771896785409
field sum 17.573896893858
field sqrsum 0.0069657654584351
field min 4e-007
field max 0.000544933227
statistic Basic.rack[10].node[0].app 	hops
field count 189779
field mean 3.209696541767
field stddev 0.83210775478805
field sum 609133
field sqrsum 2086535
field min 2
field max 4
statistic Basic.rack[10].node[1].app 	throughput
field count 189447
field mean 94724
field stddev 54688.78256096
field sum 17945177628
field sqrsum 2.266446025787e+015
field min 1
field max 189447
statistic Basic.rack[10].node[1].app 	"End-to-End Delay"
field count 189447
field mean 9.2483810280683e-005
field stddev 0.0001676315547875
field sum 17.520780406244
field sqrsum 0.0069438851942099
field min 4e-007
field max 0.000531371818
statistic Basic.rack[10].node[1].app 	hops
field count 189447
field mean 3.2075250597793
field stddev 0.83209860015223
field sum 607656
field sqrsum 2080242
field min 2
field max 4
statistic Basic.rack[10].node[2].app 	throughput
field count 188857
field mean 94429
field stddev 54518.464231549
field sum 17833577653
field sqrsum 2.245336594401e+015
field min 1
field max 188857
statistic Basic.rack[10].node[2].app 	"End-to-End Delay"
field count 188857
field mean 9.2446481001274e-005
field stddev 0.00016752811534753
field sum 17.459165062458
field sqrsum 0.0069144084374744
field min 4e-007
field max 0.000530263964
statistic Basic.rack[10].node[2].app 	hops
field count 188857
field mean 3.2081627898357
field stddev 0.83116854494109
field sum 605884
field sqrsum 2074244
field min 2
field max 4
statistic Basic.rack[10].node[3].app 	throughput
field count 189125
field mean 94563
field stddev 54595.82916762
field sum 17884227375
field sqrsum 2.2549089629404e+015
field min 1
field max 189125
statistic Basic.rack[10].node[3].app 	"End-to-End Delay"
field count 189125
field mean 9.2897176877014e-005
field stddev 0.00016791094026611
field sum 17.569178576865
field sqrsum 0.0069643050059762
field min 4e-007
field max 0.000534995179
statistic Basic.rack[10].node[3].app 	hops
field count 189125
field mean 3.2129173826834
field stddev 0.83105276001518
field sum 607643
field sqrsum 2082925
field min 2
field max 4
statistic Basic.rack[10].node[4].app 	throughput
field count 190053
field mean 95027
field stddev 54863.719692525
field sum 18060166431
field sqrsum 2.288265227196e+015
field min 1
field max 190053
statistic Basic.rack[10].node[4].app 	"End-to-End Delay"
field count 190053
field mean 9.2158297274799e-005
field stddev 0.00016734055603584
field sum 17.514960871967
field sqrsum 0.0069361488415367
field min 4e-007
field max 0.000538509266
statistic Basic.rack[10].node[4].app 	hops
field count 190053
field mean 3.2088627909057
field stddev 0.83085338187599
field sum 609854
field sqrsum 2088134
field min 2
field max 4
statistic Basic.rack[10].node[5].app 	throughput
field count 189942
field mean 94971.5
field stddev 54831.676752585
field sum 18039076653
field sqrsum 2.2842582114416e+015
field min 1
field max 189942
statistic Basic.rack[10].node[5].app 	"End-to-End Delay"
field count 189942
field mean 9.2633109628727e-005
field stddev 0.00016774403919534
field sum 17.5949181091
field sqrsum 0.0069744437426681
field min 4e-007
field max 0.000529979311
statistic Basic.rack[10].node[5].app 	hops
field count 189942
field mean 3.2102852449695
field stddev 0.83179453368845
field sum 609768
field sqrsum 2088946
field min 2
field max 4
statistic Basic.rack[10].node[6].app 	throughput
field count 189511
field mean 94756
field stddev 54707.257769574
field sum 17957304316
field sqrsum 2.2687437845878e+015
field min 1
field max 189511
statistic Basic.rack[10].node[6].app 	"End-to-End Delay"
field count 189511
field mean 9.3580239220035e-005
field stddev 0.00016849730183714
field sum 17.734484714828
field sqrsum 0.0070400403031167
field min 4e-007
field max 0.000532511592
statistic Basic.rack[10].node[6].app 	hops
field count 189511
field mean 3.2118452227048
field stddev 0.83290860321024
field sum 608680
field sqrsum 2086456
field min 2
field max 4
statistic Basic.rack[10].node[7].app 	throughput
field count 190313
field mean 95157
field stddev 54938.77522752
field sum 18109614141
field sqrsum 2.2976693672155e+015
field min 1
field max 190313
statistic Basic.rack[10].node[7].app 	"End-to-End Delay"
field count 190313
field mean 9.2664725746629e-005
field stddev 0.00016779676041724
field sum 17.635301951018
field sqrsum 0.0069925480468647
field min 4e-007
field max 0.000540432302
statistic Basic.rack[10].node[7].app 	hops
field count 190313
field mean 3.2102483802998
field stddev 0.83177828764542
field sum 610952
field sqrsum 2092976
field min 2
field max 4
statistic Basic.rack[10].node[8].app 	throughput
field count 190319
field mean 95160
field stddev 54940.507278328
field sum 18110756040
field sqrsum 2.2978866894365e+015
field min 1
field max 190319
statistic Basic.rack[10].node[8].app 	"End-to-End Delay"
field count 190319
field mean 9.3546397123444e-005
field stddev 0.00016837006832339
field sum 17.803656754137
field sqrsum 0.0070606939439548
field min 4e-007
field max 0.000538523946
statistic Basic.rack[10].node[8].app 	hops
field count 190319
field mean 3.2092696998198
field stddev 0.83237416033697
field sum 610785
field sqrsum 2092035
field min 2
field max 4
statistic Basic.rack[10].node[9].app 	throughput
field count 189022
field mean 94511.5
field stddev 54566.095628757
field sum 17864752753
field sqrsum 2.2512268181693e+015
field min 1
field max 189022
statistic Basic.rack[10].node[9].app 	"End-to-End Delay"
field count 189022
field mean 9.2583886546453e-005
field stddev 0.00016772211135704
field sum 17.500391402784
field sqrsum 0.0069375485515874
field min 4e-007
field max 0.000525340828
statistic Basic.rack[10].node[9].app 	hops
field count 189022
field mean 3.2068700997767
field stddev 0.83296241946705
field sum 606169
field sqrsum 2075053
field min 2
field max 4
statistic Basic.rack[10].eps.queue[0] 	dropsum
field count 0
field mean nan
field stddev nan
field sum 0
field sqrsum 0
field min nan
field max nan
statistic Basic.rack[10].eps.queue[1] 	dropsum
field count 0
field mean nan
field stddev nan
field sum 0
field sqrsum 0
field min nan
field max nan
statistic Basic.rack[10].eps.queue[2] 	dropsum
field count 0
field mean nan
field stddev nan
field sum 0
field sqrsum 0
field min nan
field max nan
statistic Basic.rack[10].eps.queue[3] 	dropsum
field count 0
field mean nan
field stddev nan
field sum 0
field sqrsum 0
field min nan
field max nan
statistic Basic.rack[11].node[0].app 	throughput
field count 190202
field mean 95101.5
field stddev 54906.73228758
field sum 18088495503
field sqrsum 2.2936513772729e+015
field min 1
field max 190202
statistic Basic.rack[11].node[0].app 	"End-to-End Delay"
field count 190202
field mean 9.2281369775338e-005
field stddev 0.00016748827346651
field sum 17.552101094009
field sqrsum 0.0069553115803327
field min 4e-007
field max 0.000538176308
statistic Basic.rack[11].node[0].app 	hops
field count 190202
field mean 3.2075740528491
field stddev 0.83330727956678
field sum 610087
field sqrsum 2088975
field min 2
field max 4
statistic Basic.rack[11].node[1].app 	throughput
field count 189599
field mean 94800
field stddev 54732.661181419
field sum 17973985200
field sqrsum 2.2719057379516e+015
field min 1
field max 189599
statistic Basic.rack[11].node[1].app 	"End-to-End Delay"
field count 189599
field mean 9.2813614912989e-005
field stddev 0.00016790345040893
field sum 17.597368573888
field sqrsum 0.0069783404249501
field min 4e-007
field max 0.000540507783
statistic Basic.rack[11].node[1].app 	hops
field count 189599
field mean 3.2073428657324
field stddev 0.8334271881665
field sum 608109
field sqrsum 2082109
field min 2
field max 4
statistic Basic.rack[11].node[2].app 	throughput
field count 189528
field mean 94764.5
field stddev 54712.165246863
field sum 17960526156
field sqrsum 2.269354387705e+015
field min 1
field max 189528
statistic Basic.rack[11].node[2].app 	"End-to-End Delay"
field count 189528
field mean 9.2497226700344e-005
field stddev 0.00016764335503695
field sum 17.530814382063
field sqrsum 0.0069480743335749
field min 4e-007
[...]
field min 2
field max 4
statistic Basic.rack[13].node[2].app 	throughput
field count 182381
field mean 91191
field stddev 52649.004059906
field sum 16631505771
field sqrsum 2.0221859798491e+015
field min 1
field max 182381
statistic Basic.rack[13].node[2].app 	"End-to-End Delay"
field count 182381
field mean 0.0001946637910646
field stddev 0.00020080471519625
field sum 35.502976878153
field sqrsum 0.014265167759364
field min 4e-007
field max 0.000614531441
statistic Basic.rack[13].node[2].app 	hops
field count 182381
field mean 2.958208366003
field stddev 0.71156483202501
field sum 539521
field sqrsum 1688359
field min 2
field max 4
statistic Basic.rack[13].node[3].app 	throughput
field count 181908
field mean 90954.5
field stddev 52512.460721242
field sum 16545351186
field sqrsum 2.0064933441457e+015
field min 1
field max 181908
statistic Basic.rack[13].node[3].app 	"End-to-End Delay"
field count 181908
field mean 0.00019415369170359
field stddev 0.00020069207132452
field sum 35.318109750416
field sqrsum 0.014183865566079
field min 4e-007
field max 0.000644217095
statistic Basic.rack[13].node[3].app 	hops
field count 181908
field mean 2.9572036414011
field stddev 0.71193501808284
field sum 537939
field sqrsum 1682995
field min 2
field max 4
statistic Basic.rack[13].node[4].app 	throughput
field count 182498
field mean 91249.5
field stddev 52682.779050654
field sum 16652851251
field sqrsum 2.0260802493537e+015
field min 1
field max 182498
statistic Basic.rack[13].node[4].app 	"End-to-End Delay"
field count 182498
field mean 0.00019535692164069
field stddev 0.0002010186346776
field sum 35.652247485582
field sqrsum 0.014339341789376
field min 4e-007
field max 0.000625635654
statistic Basic.rack[13].node[4].app 	hops
field count 182498
field mean 2.960996832842
field stddev 0.71261778234738
field sum 540376
field sqrsum 1692728
field min 2
field max 4
statistic Basic.rack[13].node[5].app 	throughput
field count 182813
field mean 91407
field stddev 52773.711718051
field sum 16710387891
field sqrsum 2.0365896644742e+015
field min 1
field max 182813
statistic Basic.rack[13].node[5].app 	"End-to-End Delay"
field count 182813
field mean 0.00019492342628858
field stddev 0.00020084131955818
field sum 35.634536330093
field sqrsum 0.014320136637828
field min 4e-007
field max 0.000647391585
statistic Basic.rack[13].node[5].app 	hops
field count 182813
field mean 2.9600028444367
field stddev 0.71112399254345
field sum 541127
field sqrsum 1694185
field min 2
field max 4
statistic Basic.rack[13].node[6].app 	throughput
field count 182273
field mean 91137
field stddev 52617.82714537
field sum 16611814401
field sqrsum 2.0185957014804e+015
field min 1
field max 182273
statistic Basic.rack[13].node[6].app 	"End-to-End Delay"
field count 182273
field mean 0.00019464314745246
field stddev 0.00020077399227688
field sum 35.478190415602
field sqrsum 0.014253006689129
field min 4e-007
field max 0.00062877659
statistic Basic.rack[13].node[6].app 	hops
field count 182273
field mean 2.9577831055614
field stddev 0.70973268851323
field sum 539124
field sqrsum 1686426
field min 2
field max 4
statistic Basic.rack[13].node[7].app 	throughput
field count 182070
field mean 91035.5
field stddev 52559.226093047
field sum 16574833485
field sqrsum 2.0118588133538e+015
field min 1
field max 182070
statistic Basic.rack[13].node[7].app 	"End-to-End Delay"
field count 182070
field mean 0.00019584102048064
field stddev 0.00020096945997189
field sum 35.656774598909
field sqrsum 0.014336593685577
field min 4e-007
field max 0.000616721991
statistic Basic.rack[13].node[7].app 	hops
field count 182070
field mean 2.9622013511287
field stddev 0.71247457605299
field sum 539328
field sqrsum 1690020
field min 2
field max 4
statistic Basic.rack[13].node[8].app 	throughput
field count 183026
field mean 91513.5
field stddev 52835.19952172
field sum 16749349851
field sqrsum 2.0437165870027e+015
field min 1
field max 183026
statistic Basic.rack[13].node[8].app 	"End-to-End Delay"
field count 183026
field mean 0.00019536030283514
field stddev 0.00020089415661094
field sum 35.756014786704
field sqrsum 0.014371913413819
field min 4e-007
field max 0.000629879059
statistic Basic.rack[13].node[8].app 	hops
field count 183026
field mean 2.9600657830035
field stddev 0.71192208843949
field sum 541769
field sqrsum 1696435
field min 2
field max 4
statistic Basic.rack[13].node[9].app 	throughput
field count 182094
field mean 91047.5
field stddev 52566.154296277
field sum 16579203465
field sqrsum 2.0126545102383e+015
field min 1
field max 182094
statistic Basic.rack[13].node[9].app 	"End-to-End Delay"
field count 182094
field mean 0.00019444676705157
field stddev 0.00020079782689839
field sum 35.407589599488
field sqrsum 0.014226838711322
field min 4e-007
field max 0.000632112793
statistic Basic.rack[13].node[9].app 	hops
field count 182094
field mean 2.958548881347
field stddev 0.71142195360586
field sum 538734
field sqrsum 1686032
field min 2
field max 4
statistic Basic.rack[13].eps.queue[0] 	dropsum
field count 279220
field mean 139610.5
field stddev 80604.015419002
field sum 38982043810
field sqrsum 7.2563905091001e+015
field min 1
field max 279220
statistic Basic.rack[13].eps.queue[1] 	dropsum
field count 0
field mean nan
field stddev nan
field sum 0
field sqrsum 0
field min nan
field max nan
statistic Basic.rack[13].eps.queue[2] 	dropsum
field count 0
field mean nan
field stddev nan
field sum 0
field sqrsum 0
field min nan
field max nan
statistic Basic.rack[13].eps.queue[3] 	dropsum
field count 0
field mean nan
field stddev nan
field sum 0
field sqrsum 0
field min nan
field max nan
statistic Basic.rack[14].node[0].app 	throughput
field count 189812
field mean 94906.5
field stddev 54794.148985088
field sum 18014392578
field sqrsum 2.2795712608078e+015
field min 1
field max 189812
statistic Basic.rack[14].node[0].app 	"End-to-End Delay"
field count 189812
field mean 9.2075609721844e-005
field stddev 0.00016728817751132
field sum 17.477055632523
field sqrsum 0.006921134848979
field min 4e-007
field max 0.000555342245
statistic Basic.rack[14].node[0].app 	hops
field count 189812
field mean 3.2087591933071
field stddev 0.83192143668335
field sum 609061
field sqrsum 2085697
field min 2
field max 4
statistic Basic.rack[14].node[1].app 	throughput
field count 189392
field mean 94696.5
field stddev 54672.905428558
field sum 17934759528
field sqrsum 2.2644726292712e+015
field min 1
field max 189392
statistic Basic.rack[14].node[1].app 	"End-to-End Delay"
field count 189392
field mean 9.2464569186857e-005
field stddev 0.00016759203638817
field sum 17.512049687437
field sqrsum 0.0069386863172546
field min 4e-007
field max 0.000543414823
statistic Basic.rack[14].node[1].app 	hops
field count 189392
field mean 3.2098821491932
field stddev 0.83253985597704
field sum 607926
field sqrsum 2082642
field min 2
field max 4
statistic Basic.rack[14].node[2].app 	throughput
field count 189757
field mean 94879
field stddev 54778.271852685
field sum 18003954403
field sqrsum 2.2775902517515e+015
field min 1
field max 189757
statistic Basic.rack[14].node[2].app 	"End-to-End Delay"
field count 189757
field mean 9.2830729295812e-005
field stddev 0.00016790004531119
field sum 17.615280698985
field sqrsum 0.0069845416812295
field min 4e-007
field max 0.000538640009
statistic Basic.rack[14].node[2].app 	hops
field count 189757
field mean 3.2102952723747
field stddev 0.83334018575532
field sum 609176
field sqrsum 2087412
field min 2
field max 4
statistic Basic.rack[14].node[3].app 	throughput
field count 189325
field mean 94663
field stddev 54653.56419454
field sum 17922072475
field sqrsum 2.2620702215771e+015
field min 1
field max 189325
statistic Basic.rack[14].node[3].app 	"End-to-End Delay"
field count 189325
field mean 9.2607122675826e-005
field stddev 0.00016769933374208
field sum 17.532843500601
field sqrsum 0.0069480376380688
field min 4e-007
field max 0.000539071895
statistic Basic.rack[14].node[3].app 	hops
field count 189325
field mean 3.2075637131916
field stddev 0.83135776718431
field sum 607272
field sqrsum 2078716
field min 2
field max 4
statistic Basic.rack[14].node[4].app 	throughput
field count 189192
field mean 94596.5
field stddev 54615.170401638
field sum 17896901028
field sqrsum 2.2573062984933e+015
field min 1
field max 189192
statistic Basic.rack[14].node[4].app 	"End-to-End Delay"
field count 189192
field mean 9.2991469367696e-005
field stddev 0.00016798812188307
field sum 17.593242072613
field sqrsum 0.006974993171739
field min 4e-007
field max 0.000545587616
statistic Basic.rack[14].node[4].app 	hops
field count 189192
field mean 3.2090046090744
field stddev 0.83282861375648
field sum 607118
field sqrsum 2079468
field min 2
field max 4
statistic Basic.rack[14].node[5].app 	throughput
field count 190247
field mean 95124
field stddev 54919.722668637
field sum 18097055628
field sqrsum 2.2952797270586e+015
field min 1
field max 190247
statistic Basic.rack[14].node[5].app 	"End-to-End Delay"
field count 190247
field mean 9.2372242825359e-005
field stddev 0.00016760031645452
field sum 17.573542080796
field sqrsum 0.0069672921578181
field min 4e-007
field max 0.000556166098
statistic Basic.rack[14].node[5].app 	hops
field count 190247
field mean 3.2089178804396
field stddev 0.83357636890562
field sum 610487
field sqrsum 2091195
field min 2
field max 4
statistic Basic.rack[14].node[6].app 	throughput
field count 189878
field mean 94939.5
field stddev 54813.201543971
field sum 18026922381
field sqrsum 2.2819499875471e+015
field min 1
field max 189878
statistic Basic.rack[14].node[6].app 	"End-to-End Delay"
field count 189878
field mean 9.2334896180651e-005
field stddev 0.00016742732915316
field sum 17.53236541699
field sqrsum 0.0069414642195804
field min 4e-007
field max 0.0005258622
statistic Basic.rack[14].node[6].app 	hops
field count 189878
field mean 3.2078071182549
field stddev 0.83059015787816
field sum 609092
field sqrsum 2084842
field min 2
field max 4
statistic Basic.rack[14].node[7].app 	throughput
field count 189692
field mean 94846.5
field stddev 54759.507968936
field sum 17991622278
field sqrsum 2.275250539313e+015
field min 1
field max 189692
statistic Basic.rack[14].node[7].app 	"End-to-End Delay"
field count 189692
field mean 9.3079578810966e-005
field stddev 0.000168014972399
field sum 17.65645146381
field sqrsum 0.0069982481755289
field min 4e-007
field max 0.00054461362
statistic Basic.rack[14].node[7].app 	hops
field count 189692
field mean 3.2067456719313
field stddev 0.83277641168349
field sum 608294
field sqrsum 2082198
field min 2
field max 4
statistic Basic.rack[14].node[8].app 	throughput
field count 189877
field mean 94939
field stddev 54812.912868837
field sum 18026732503
field sqrsum 2.2819139338923e+015
field min 1
field max 189877
statistic Basic.rack[14].node[8].app 	"End-to-End Delay"
field count 189877
field mean 9.2838132659974e-005
field stddev 0.00016781041656682
field sum 17.627826115078
field sqrsum 0.0069835064003084
field min 4e-007
field max 0.000557709764
statistic Basic.rack[14].node[8].app 	hops
field count 189877
field mean 3.2081031404541
field stddev 0.83281708663798
field sum 609145
field sqrsum 2085895
field min 2
field max 4
statistic Basic.rack[14].node[9].app 	throughput
field count 189909
field mean 94955
field stddev 54822.150473144
field sum 18032809095
field sqrsum 2.2830678392179e+015
field min 1
field max 189909
statistic Basic.rack[14].node[9].app 	"End-to-End Delay"
field count 189909
field mean 9.3001010837172e-005
field stddev 0.00016792351542433
field sum 17.661728967076
field sqrsum 0.0069976427389918
field min 4e-007
field max 0.000551446275
statistic Basic.rack[14].node[9].app 	hops
field count 189909
field mean 3.2108325566456
field stddev 0.83150809278474
field sum 609766
field sqrsum 2089160
field min 2
field max 4
statistic Basic.rack[14].eps.queue[0] 	dropsum
field count 0
field mean nan
field stddev nan
field sum 0
field sqrsum 0
field min nan
field max nan
statistic Basic.rack[14].eps.queue[1] 	dropsum
field count 0
field mean nan
field stddev nan
field sum 0
field sqrsum 0
field min nan
field max nan
statistic Basic.rack[14].eps.queue[2] 	dropsum
field count 0
field mean nan
field stddev nan
field sum 0
field sqrsum 0
field min nan
field max nan
statistic Basic.rack[14].eps.queue[3] 	dropsum
field count 0
field mean nan
field stddev nan
field sum 0
field sqrsum 0
field min nan
field max nan
statistic Basic.rack[15].node[0].app 	throughput
field count 189331
field mean 94666
field stddev 54655.296245347
field sum 17923208446
field sqrsum 2.2622852932626e+015
field min 1
field max 189331
statistic Basic.rack[15].node[0].app 	"End-to-End Delay"
field count 189331
field mean 9.3105071253739e-005
field stddev 0.00016808422400925
field sum 17.627676245542
field sqrsum 0.0069902352161676
field min 4e-007
field max 0.000562129192
statistic Basic.rack[15].node[0].app 	hops
field count 189331
field mean 3.2134674194928
field stddev 0.8308874498586
field sum 608409
field sqrsum 2085811
field min 2
field max 4
statistic Basic.rack[15].node[1].app 	throughput
field count 189376
field mean 94688.5
field stddev 54668.286626404
field sum 17931729376
field sqrsum 2.2638987654494e+015
field min 1
field max 189376
statistic Basic.rack[15].node[1].app 	"End-to-End Delay"
field count 189376
field mean 9.271520577941e-005
field stddev 0.00016773102239146
field sum 17.558034809682
field sqrsum 0.0069557154663132
field min 4e-007
field max 0.0005325236
statistic Basic.rack[15].node[1].app 	hops
field count 189376
field mean 3.2074866931396
field stddev 0.8323690009547
field sum 607421
field sqrsum 2079501
field min 2
field max 4
statistic Basic.rack[15].node[2].app 	throughput
field count 189157
field mean 94579
field stddev 54605.066771928
field sum 17890279903
field sqrsum 2.2560537471678e+015
field min 1
field max 189157
statistic Basic.rack[15].node[2].app 	"End-to-End Delay"
field count 189157
field mean 9.2070235609341e-005
field stddev 0.00016735121902376
field sum 17.415729557156
field sqrsum 0.0069010546929468
field min 4e-007
field max 0.000537020021
statistic Basic.rack[15].node[2].app 	hops
field count 189157
field mean 3.2097305412964
field stddev 0.83257563504186
field sum 607143
field sqrsum 2079885
field min 2
field max 4
statistic Basic.rack[15].node[3].app 	throughput
field count 189598
field mean 94799.5
field stddev 54732.372506284
field sum 17973795601
field sqrsum 2.2718697901708e+015
field min 1
field max 189598
statistic Basic.rack[15].node[3].app 	"End-to-End Delay"
field count 189598
field mean 9.229447990473e-005
field stddev 0.00016749466680291
field sum 17.498848800977
field sqrsum 0.0069340892476738
field min 4e-007
field max 0.000557805173
statistic Basic.rack[15].node[3].app 	hops
field count 189598
field mean 3.2068481735039
field stddev 0.83296376768598
field sum 608012
field sqrsum 2081350
field min 2
field max 4
statistic Basic.rack[15].node[4].app 	throughput
field count 189718
field mean 94859.5
field stddev 54767.013522436
field sum 17996554621
field sqrsum 2.2761862319095e+015
field min 1
field max 189718
statistic Basic.rack[15].node[4].app 	"End-to-End Delay"
field count 189718
field mean 9.2824771221511e-005
field stddev 0.00016791766281427
field sum 17.610529946603
field sqrsum 0.0069840187308942
field min 4e-007
field max 0.000552873918
statistic Basic.rack[15].node[4].app 	hops
field count 189718
field mean 3.2080456256128
field stddev 0.8325629539672
field sum 608624
field sqrsum 2083998
field min 2
field max 4
statistic Basic.rack[15].node[5].app 	throughput
field count 189963
field mean 94982
field stddev 54837.738930412
field sum 18043065666
field sqrsum 2.2850159364288e+015
field min 1
field max 189963
statistic Basic.rack[15].node[5].app 	"End-to-End Delay"
field count 189963
field mean 9.256660500431e-005
field stddev 0.00016769880341606
field sum 17.584229986434
field sqrsum 0.0069699926484537
field min 4e-007
field max 0.000552907393
statistic Basic.rack[15].node[5].app 	hops
field count 189963
field mean 3.2066455046509
field stddev 0.83330514351142
field sum 609144
field sqrsum 2085218
field min 2
field max 4
statistic Basic.rack[15].node[6].app 	throughput
field count 189956
field mean 94978.5
field stddev 54835.71820447
field sum 18041735946
field sqrsum 2.2847633428176e+015
field min 1
field max 189956
statistic Basic.rack[15].node[6].app 	"End-to-End Delay"
field count 189956
field mean 9.2693336525275e-005
field stddev 0.00016779461465582
field sum 17.607655432995
field sqrsum 0.0069803015684241
field min 4e-007
field max 0.000553351467
statistic Basic.rack[15].node[6].app 	hops
field count 189956
field mean 3.2075427993851
field stddev 0.8319507167426
field sum 609292
field sqrsum 2085806
field min 2
field max 4
statistic Basic.rack[15].node[7].app 	throughput
field count 189157
field mean 94579
field stddev 54605.066771928
field sum 17890279903
field sqrsum 2.2560537471678e+015
field min 1
field max 189157
statistic Basic.rack[15].node[7].app 	"End-to-End Delay"
field count 189157
field mean 9.2184183571551e-005
field stddev 0.00016750033600703
field sum 17.437283611844
field sqrsum 0.0069144710703299
field min 4e-007
field max 0.000542536576
statistic Basic.rack[15].node[7].app 	hops
field count 189157
field mean 3.2090591413482
field stddev 0.83316019767362
field sum 607016
field sqrsum 2079254
field min 2
field max 4
statistic Basic.rack[15].node[8].app 	throughput
field count 189766
field mean 94883.5
field stddev 54780.869928896
field sum 18005662261
field sqrsum 2.2779143383014e+015
field min 1
field max 189766
statistic Basic.rack[15].node[8].app 	"End-to-End Delay"
field count 189766
field mean 9.2091901383222e-005
field stddev 0.00016736552036947
field sum 17.475911757889
field sqrsum 0.0069249386137214
field min 4e-007
field max 0.000536875848
statistic Basic.rack[15].node[8].app 	hops
field count 189766
field mean 3.2110546673271
field stddev 0.83179147382725
field sum 609349
field sqrsum 2087947
field min 2
field max 4
statistic Basic.rack[15].node[9].app 	throughput
field count 190090
field mean 95045.5
field stddev 54874.400672505
field sum 18067199095
field sqrsum 2.2896019397121e+015
field min 1
field max 190090
statistic Basic.rack[15].node[9].app 	"End-to-End Delay"
field count 190090
field mean 9.3552006937991e-005
field stddev 0.00016839935583435
field sum 17.783300998843
field sqrsum 0.007054272569586
field min 4e-007
field max 0.000539724054
statistic Basic.rack[15].node[9].app 	hops
field count 190090
field mean 3.2148298174549
field stddev 0.83086054134857
field sum 611107
field sqrsum 2095829
field min 2
field max 4
statistic Basic.rack[15].eps.queue[0] 	dropsum
field count 0
field mean nan
field stddev nan
field sum 0
field sqrsum 0
field min nan
field max nan
statistic Basic.rack[15].eps.queue[1] 	dropsum
field count 0
field mean nan
field stddev nan
field sum 0
field sqrsum 0
field min nan
field max nan
statistic Basic.rack[15].eps.queue[2] 	dropsum
field count 0
field mean nan
field stddev nan
field sum 0
field sqrsum 0
field min nan
field max nan
statistic Basic.rack[15].eps.queue[3] 	dropsum
field count 0
field mean nan
field stddev nan
field sum 0
field sqrsum 0
field min nan
field max nan
