version 2
run Basic-62-20180510-19:05:34-20552
attr configname Basic
attr datetime 20180510-19:05:34
attr experiment Basic
attr inifile omnetpp.ini
attr iterationvars "$0=exponential(0.08 ms), $1=7, $2=4"
attr iterationvarsf exponential(0.08_ms),7,4-
attr measurement "$0=exponential(0.08 ms), $1=7, $2=4"
attr network Networks.Basic
attr processid 20552
attr repetition 0
attr replication #0
attr resultdir results
attr runnumber 62
attr seedset 62
param **.frameCapacity 50
param **.packetLength "1024 bytes"
param **.pattern 7
param **.sendIaTime "exponential(0.08 ms)"
param **.tp 4

statistic Basic.rack[0].node[0].app 	throughput
field count 123327
field mean 61664
field stddev 35601.582661449
field sum 7604836128
field sqrsum 6.2525695171728e+014
field min 1
field max 123327
statistic Basic.rack[0].node[0].app 	"End-to-End Delay"
field count 123327
field mean 0.00015313007813955
field stddev 0.00016326151813991
field sum 18.885073146717
field sqrsum 0.0061790438025832
field min 4e-007
field max 0.000563323131
statistic Basic.rack[0].node[0].app 	hops
field count 123327
field mean 2.9946483738354
field stddev 0.7082037383141
field sum 369321
field sqrsum 1167841
field min 2
field max 4
statistic Basic.rack[0].node[1].app 	throughput
field count 123124
field mean 61562.5
field stddev 35542.981609126
field sum 7579821250
field sqrsum 6.2217446766375e+014
field min 1
field max 123124
statistic Basic.rack[0].node[1].app 	"End-to-End Delay"
field count 123124
field mean 0.00015402831455631
field stddev 0.00016333005613896
field sum 18.964582201431
field sqrsum 0.0062055988580593
field min 4e-007
field max 0.000566611986
statistic Basic.rack[0].node[1].app 	hops
field count 123124
field mean 2.9954111302427
field stddev 0.70660642265618
field sum 368807
field sqrsum 1166203
field min 2
field max 4
statistic Basic.rack[0].node[2].app 	throughput
field count 123627
field mean 61814
field stddev 35688.185201828
field sum 7641879378
field sqrsum 6.2983096186913e+014
field min 1
field max 123627
statistic Basic.rack[0].node[2].app 	"End-to-End Delay"
field count 123627
field mean 0.00015393330497942
field stddev 0.00016320023581952
field sum 19.030312694691
field sqrsum 0.0062220929978101
field min 4e-007
field max 0.000558697718
statistic Basic.rack[0].node[2].app 	hops
field count 123627
field mean 2.9978240999134
field stddev 0.70893139138272
field sum 370612
field sqrsum 1173162
field min 2
field max 4
statistic Basic.rack[0].node[3].app 	throughput
field count 123506
field mean 61753.5
field stddev 35653.255510542
field sum 7626927771
field sqrsum 6.2798343649934e+014
field min 1
field max 123506
statistic Basic.rack[0].node[3].app 	"End-to-End Delay"
field count 123506
field mean 0.00015370168961122
field stddev 0.00016327274160964
field sum 18.983080877124
field sqrsum 0.0062101264316429
field min 4e-007
field max 0.000557476226
statistic Basic.rack[0].node[3].app 	hops
field count 123506
field mean 2.9960082910952
field stddev 0.70717852787304
field sum 370025
field sqrsum 1170363
field min 2
field max 4
statistic Basic.rack[0].node[4].app 	throughput
field count 123186
field mean 61593.5
field stddev 35560.879467471
field sum 7587456891
field sqrsum 6.2311483886878e+014
field min 1
field max 123186
statistic Basic.rack[0].node[4].app 	"End-to-End Delay"
field count 123186
field mean 0.00015370377931544
field stddev 0.00016339498821856
field sum 18.934153758751
field sqrsum 0.0061990345339802
field min 4e-007
field max 0.000555399098
statistic Basic.rack[0].node[4].app 	hops
field count 123186
field mean 2.9947883688081
field stddev 0.70773880570053
field sum 368916
field sqrsum 1166528
field min 2
field max 4
statistic Basic.rack[0].node[5].app 	throughput
field count 123671
field mean 61836
field stddev 35700.886907751
field sum 7647319956
field sqrsum 6.3050368662564e+014
field min 1
field max 123671
statistic Basic.rack[0].node[5].app 	"End-to-End Delay"
field count 123671
field mean 0.00015378584996689
field stddev 0.00016323739111975
field sum 19.018849851255
field sqrsum 0.0062201959492224
field min 4e-007
field max 0.000544596934
statistic Basic.rack[0].node[5].app 	hops
field count 123671
field mean 2.9991509731465
field stddev 0.7087054176908
field sum 370908
field sqrsum 1174524
field min 2
field max 4
statistic Basic.rack[0].node[6].app 	throughput
field count 123839
field mean 61920
field stddev 35749.384330363
field sum 7668110880
field sqrsum 6.3307667821584e+014
field min 1
field max 123839
statistic Basic.rack[0].node[6].app 	"End-to-End Delay"
field count 123839
field mean 0.00015293259715192
field stddev 0.00016287638958953
field sum 18.939019898696
field sqrsum 0.0061816569156864
field min 4e-007
field max 0.000570692242
statistic Basic.rack[0].node[6].app 	hops
field count 123839
field mean 2.9942990495724
field stddev 0.71050729303411
field sum 370811
field sqrsum 1172835
field min 2
field max 4
statistic Basic.rack[0].node[7].app 	throughput
field count 123652
field mean 61826.5
field stddev 35695.402080193
field sum 7644970378
field sqrsum 6.3021313311043e+014
field min 1
field max 123652
statistic Basic.rack[0].node[7].app 	"End-to-End Delay"
field count 123652
field mean 0.00015348624381206
field stddev 0.00016342254506154
field sum 18.978881019849
field sqrsum 0.0062153355426034
field min 4e-007
field max 0.000563747108
statistic Basic.rack[0].node[7].app 	hops
field count 123652
field mean 2.9941933814253
field stddev 0.70988244993065
field sum 370238
field sqrsum 1170876
field min 2
field max 4
statistic Basic.rack[0].node[8].app 	throughput
field count 123536
field mean 61768.5
field stddev 35661.91576458
field sum 7630633416
field sqrsum 6.2844116333046e+014
field min 1
field max 123536
statistic Basic.rack[0].node[8].app 	"End-to-End Delay"
field count 123536
field mean 0.00015423071445372
field stddev 0.00016317672320947
field sum 19.053045540755
field sqrsum 0.0062278871689511
field min 4e-007
field max 0.000557635635
statistic Basic.rack[0].node[8].app 	hops
field count 123536
field mean 2.9953778655615
field stddev 0.70714605067364
field sum 370037
field sqrsum 1170175
field min 2
field max 4
statistic Basic.rack[0].node[9].app 	throughput
field count 123605
field mean 61803
field stddev 35681.834348867
field sum 7639159815
field sqrsum 6.2949477900866e+014
field min 1
field max 123605
statistic Basic.rack[0].node[9].app 	"End-to-End Delay"
field count 123605
field mean 0.00015334911709372
field stddev 0.0001631001139747
field sum 18.954717618369
field sqrsum 0.0061947592093962
field min 4e-007
field max 0.000567378568
statistic Basic.rack[0].node[9].app 	hops
field count 123605
field mean 2.9958173213058
field stddev 0.70801486700531
field sum 370298
field sqrsum 1171306
field min 2
field max 4
statistic Basic.rack[0].eps.queue[0] 	dropsum
field count 0
field mean nan
field stddev nan
field sum 0
field sqrsum 0
field min nan
field max nan
statistic Basic.rack[0].eps.queue[1] 	dropsum
field count 30319
field mean 15160
field stddev 8752.4857421573
field sum 459636040
field sqrsum 9290623276520
field min 1
field max 30319
statistic Basic.rack[0].eps.queue[2] 	dropsum
field count 0
field mean nan
field stddev nan
field sum 0
field sqrsum 0
field min nan
field max nan
statistic Basic.rack[0].eps.queue[3] 	dropsum
field count 0
field mean nan
field stddev nan
field sum 0
field sqrsum 0
field min nan
field max nan
statistic Basic.rack[1].node[0].app 	throughput
field count 123390
field mean 61695.5
field stddev 35619.769194929
field sum 7612607745
field sqrsum 6.2621565063962e+014
field min 1
field max 123390
statistic Basic.rack[1].node[0].app 	"End-to-End Delay"
field count 123390
field mean 0.0001520779560056
field stddev 0.00016252720131517
field sum 18.764898991531
field sqrsum 0.0061130591673305
field min 4e-007
field max 0.000567997034
statistic Basic.rack[1].node[0].app 	hops
field count 123390
field mean 2.9935813274982
field stddev 0.70865476526072
field sum 369378
field sqrsum 1167728
field min 2
field max 4
statistic Basic.rack[1].node[1].app 	throughput
field count 123672
field mean 61836.5
field stddev 35701.175582885
field sum 7647443628
field sqrsum 6.3051898138922e+014
field min 1
field max 123672
statistic Basic.rack[1].node[1].app 	"End-to-End Delay"
field count 123672
field mean 0.00015266490577181
field stddev 0.00016260630186788
field sum 18.880374226611
field sqrsum 0.0061523318924332
field min 4e-007
field max 0.000585450155
statistic Basic.rack[1].node[1].app 	hops
field count 123672
field mean 2.9954961511094
field stddev 0.70945279179799
field sum 370459
field sqrsum 1171955
field min 2
field max 4
statistic Basic.rack[1].node[2].app 	throughput
field count 123350
field mean 61675.5
field stddev 35608.222189545
field sum 7607672925
field sqrsum 6.2560683942348e+014
field min 1
field max 123350
statistic Basic.rack[1].node[2].app 	"End-to-End Delay"
field count 123350
field mean 0.00015189539677667
field stddev 0.00016226921010439
field sum 18.736297192403
field sqrsum 0.0060938963940529
field min 4e-007
field max 0.000569140798
statistic Basic.rack[1].node[2].app 	hops
field count 123350
field mean 2.9947547628699
field stddev 0.70879648005191
field sum 369403
field sqrsum 1168241
field min 2
field max 4
statistic Basic.rack[1].node[3].app 	throughput
field count 123397
field mean 61699
field stddev 35621.789920871
field sum 7613471503
field sqrsum 6.263222331943e+014
field min 1
field max 123397
statistic Basic.rack[1].node[3].app 	"End-to-End Delay"
field count 123397
field mean 0.0001518272819656
field stddev 0.00016201968191223
field sum 18.73503111271
field sqrsum 0.006083680412019
field min 4e-007
field max 0.000562766127
statistic Basic.rack[1].node[3].app 	hops
field count 123397
field mean 2.9951862687099
field stddev 0.70658593012291
field sum 369597
field sqrsum 1168619
field min 2
field max 4
statistic Basic.rack[1].node[4].app 	throughput
field count 122936
field mean 61468.5
field stddev 35488.710683822
field sum 7556691516
field sqrsum 6.1932880437116e+014
field min 1
field max 122936
statistic Basic.rack[1].node[4].app 	"End-to-End Delay"
field count 122936
field mean 0.0001515544321615
field stddev 0.00016199689488973
field sum 18.631495672207
field sqrsum 0.0060498682086454
field min 4e-007
field max 0.000561692248
statistic Basic.rack[1].node[4].app 	hops
field count 122936
field mean 2.9964290362465
field stddev 0.70668062487043
field sum 368369
field sqrsum 1165185
field min 2
field max 4
statistic Basic.rack[1].node[5].app 	throughput
field count 123695
field mean 61848
field stddev 35707.815110981
field sum 7650288360
field sqrsum 6.3087082922292e+014
field min 1
field max 123695
statistic Basic.rack[1].node[5].app 	"End-to-End Delay"
field count 123695
field mean 0.00015184108388048
field stddev 0.000162248568008
field sum 18.781982870596
field sqrsum 0.0061080714393228
field min 4e-007
field max 0.000563860903
statistic Basic.rack[1].node[5].app 	hops
field count 123695
field mean 2.9930231618093
field stddev 0.70694657865514
field sum 370222
field sqrsum 1169902
field min 2
field max 4
statistic Basic.rack[1].node[6].app 	throughput
field count 123482
field mean 61741.5
field stddev 35646.327307312
field sum 7623963903
field sqrsum 6.2761741510146e+014
field min 1
field max 123482
statistic Basic.rack[1].node[6].app 	"End-to-End Delay"
field count 123482
field mean 0.00015195953845932
field stddev 0.00016207364780044
field sum 18.764267728034
field sqrsum 0.0060949919869509
field min 4e-007
field max 0.000559360435
statistic Basic.rack[1].node[6].app 	hops
field count 123482
field mean 2.9951409922094
field stddev 0.7073734948676
field sum 369846
field sqrsum 1169528
field min 2
field max 4
statistic Basic.rack[1].node[7].app 	throughput
field count 123374
field mean 61687.5
field stddev 35615.150392775
field sum 7610633625
field sqrsum 6.2597207877838e+014
field min 1
field max 123374
statistic Basic.rack[1].node[7].app 	"End-to-End Delay"
field count 123374
field mean 0.0001518913354712
field stddev 0.00016225861191334
field sum 18.739441622424
field sqrsum 0.006094505532953
field min 4e-007
field max 0.000559512094
statistic Basic.rack[1].node[7].app 	hops
field count 123374
field mean 2.9941478755654
field stddev 0.70935723658145
field sum 369400
field sqrsum 1168118
field min 2
field max 4
statistic Basic.rack[1].node[8].app 	throughput
field count 122898
field mean 61449.5
field stddev 35477.741028707
field sum 7552020651
field sqrsum 6.1875467331795e+014
field min 1
field max 122898
statistic Basic.rack[1].node[8].app 	"End-to-End Delay"
field count 122898
field mean 0.00015200139477063
field stddev 0.00016243750030797
field sum 18.680667414521
field sqrsum 0.0060822405555533
field min 4e-007
field max 0.000560204224
statistic Basic.rack[1].node[8].app 	hops
field count 122898
field mean 2.9943611775619
field stddev 0.70820253425438
field sum 368001
field sqrsum 1163567
field min 2
field max 4
statistic Basic.rack[1].node[9].app 	throughput
field count 123373
field mean 61687
field stddev 35614.861717641
field sum 7610510251
field sqrsum 6.259568576345e+014
field min 1
field max 123373
statistic Basic.rack[1].node[9].app 	"End-to-End Delay"
field count 123373
field mean 0.00015161244619811
field stddev 0.00016212706065612
field sum 18.704882324799
field sqrsum 0.0060787486605132
field min 4e-007
field max 0.000579830886
statistic Basic.rack[1].node[9].app 	hops
field count 123373
field mean 2.9963525244583
field stddev 0.70699419772023
field sum 369669
field sqrsum 1169325
field min 2
field max 4
statistic Basic.rack[1].eps.queue[0] 	dropsum
field count 32467
field mean 16234
field stddev 9372.5599313457
field sum 527069278
field sqrsum 11408414522310
field min 1
field max 32467
statistic Basic.rack[1].eps.queue[1] 	dropsum
field count 0
field mean nan
field stddev nan
field sum 0
field sqrsum 0
field min nan
field max nan
statistic Basic.rack[1].eps.queue[2] 	dropsum
field count 0
field mean nan
field stddev nan
field sum 0
field sqrsum 0
field min nan
field max nan
statistic Basic.rack[1].eps.queue[3] 	dropsum
field count 0
field mean nan
field stddev nan
field sum 0
field sqrsum 0
field min nan
field max nan
statistic Basic.rack[2].node[0].app 	throughput
field count 123163
field mean 61582
field stddev 35554.239939375
field sum 7584623866
field sqrsum 6.2276588101339e+014
field min 1
field max 123163
statistic Basic.rack[2].node[0].app 	"End-to-End Delay"
field count 123163
field mean 0.00015726570149667
field stddev 0.00016970782886651
field sum 19.369315593434
field sqrsum 0.0065932866283205
field min 4e-007
field max 0.000585095784
statistic Basic.rack[2].node[0].app 	hops
field count 123163
field mean 3.4878007193719
field stddev 1.1203841833264
field sum 429568
field sqrsum 1652848
field min 2
field max 5
statistic Basic.rack[2].node[1].app 	throughput
field count 123352
field mean 61676.5
field stddev 35608.799539814
field sum 7607919628
field sqrsum 6.2563727060858e+014
field min 1
field max 123352
statistic Basic.rack[2].node[1].app 	"End-to-End Delay"
field count 123352
field mean 0.00015820541724543
field stddev 0.00016971700873671
field sum 19.514954628058
field sqrsum 0.0066403568510976
field min 4e-007
field max 0.000572503513
statistic Basic.rack[2].node[1].app 	hops
field count 123352
field mean 3.4918120500681
field stddev 1.1209052806059
field sum 430722
field sqrsum 1658982
field min 2
field max 5
statistic Basic.rack[2].node[2].app 	throughput
field count 122784
field mean 61392.5
field stddev 35444.832063363
field sum 7538016720
field sqrsum 6.1703440930456e+014
field min 1
field max 122784
statistic Basic.rack[2].node[2].app 	"End-to-End Delay"
field count 122784
field mean 0.00015821763587439
field stddev 0.00016991369581971
field sum 19.426594203201
field sqrsum 0.0066184565491628
field min 4e-007
field max 0.000588006234
statistic Basic.rack[2].node[2].app 	hops
field count 122784
field mean 3.4894937451134
field stddev 1.1197289160126
field sum 428454
field sqrsum 1649032
field min 2
field max 5
statistic Basic.rack[2].node[3].app 	throughput
field count 123136
field mean 61568.5
field stddev 35546.445710741
field sum 7581298816
field sqrsum 6.2235640110426e+014
field min 1
field max 123136
statistic Basic.rack[2].node[3].app 	"End-to-End Delay"
field count 123136
field mean 0.00015784372423585
field stddev 0.00016973776791205
field sum 19.436244827505
field sqrsum 0.0066155206538228
field min 4e-007
field max 0.00060233833
statistic Basic.rack[2].node[3].app 	hops
field count 123136
field mean 3.4876071985447
field stddev 1.1185943900942
field sum 429450
field sqrsum 1651826
field min 2
field max 5
statistic Basic.rack[2].node[4].app 	throughput
field count 123689
field mean 61845
field stddev 35706.083060173
field sum 7649546205
field sqrsum 6.3077903021556e+014
field min 1
field max 123689
statistic Basic.rack[2].node[4].app 	"End-to-End Delay"
field count 123689
field mean 0.00015876956013634
field stddev 0.00016994899938984
field sum 19.638048123704
field sqrsum 0.0066903630086774
field min 4e-007
field max 0.000584542798
statistic Basic.rack[2].node[4].app 	hops
field count 123689
field mean 3.4952097599625
field stddev 1.1198598942891
field sum 432319
field sqrsum 1666161
field min 2
field max 5
statistic Basic.rack[2].node[5].app 	throughput
field count 123229
field mean 61615
field stddev 35573.292498259
field sum 7592754835
field sqrsum 6.2376758795976e+014
field min 1
field max 123229
statistic Basic.rack[2].node[5].app 	"End-to-End Delay"
field count 123229
field mean 0.00015637413672353
field stddev 0.0001692484129143
field sum 19.269828494304
field sqrsum 0.0065431719700728
field min 4e-007
field max 0.00058204172
statistic Basic.rack[2].node[5].app 	hops
field count 123229
field mean 3.4839120661533
field stddev 1.1180497960468
field sum 429319
field sqrsum 1649749
field min 2
field max 5
statistic Basic.rack[2].node[6].app 	throughput
field count 123664
field mean 61832.5
field stddev 35698.866181808
field sum 7646454280
field sqrsum 6.3039663020604e+014
field min 1
field max 123664
statistic Basic.rack[2].node[6].app 	"End-to-End Delay"
field count 123664
field mean 0.00015862577668535
field stddev 0.00017003518535043
field sum 19.616298048017
field sqrsum 0.0066869907494903
field min 4e-007
field max 0.000594569117
statistic Basic.rack[2].node[6].app 	hops
field count 123664
field mean 3.4931588821322
field stddev 1.1205317960964
field sum 431978
field sqrsum 1664238
field min 2
field max 5
statistic Basic.rack[2].node[7].app 	throughput
field count 122986
field mean 61493.5
field stddev 35503.144440552
field sum 7562839591
field sqrsum 6.2008478090568e+014
field min 1
field max 122986
statistic Basic.rack[2].node[7].app 	"End-to-End Delay"
field count 122986
field mean 0.00015882300893088
field stddev 0.00017012463738515
field sum 19.533006576373
field sqrsum 0.0066617709882303
field min 4e-007
field max 0.000592227435
statistic Basic.rack[2].node[7].app 	hops
field count 122986
field mean 3.4945928804905
field stddev 1.1219965777172
field sum 429786
field sqrsum 1656750
field min 2
field max 5
statistic Basic.rack[2].node[8].app 	throughput
field count 122998
field mean 61499.5
field stddev 35506.608542167
field sum 7564315501
field sqrsum 6.202663067665e+014
field min 1
field max 122998
statistic Basic.rack[2].node[8].app 	"End-to-End Delay"
field count 122998
field mean 0.00015874364937529
field stddev 0.00017009537259736
field sum 19.525151385862
field sqrsum 0.0066580965891103
field min 4e-007
field max 0.000599623268
statistic Basic.rack[2].node[8].app 	hops
field count 122998
field mean 3.4957235076993
field stddev 1.118233951359
field sum 429967
field sqrsum 1656847
field min 2
field max 5
statistic Basic.rack[2].node[9].app 	throughput
field count 122694
field mean 61347.5
field stddev 35418.851301249
field sum 7526970165
field sqrsum 6.156785606064e+014
field min 1
field max 122694
statistic Basic.rack[2].node[9].app 	"End-to-End Delay"
field count 122694
field mean 0.0001588527983315
field stddev 0.00017012160102657
field sum 19.490285238485
field sqrsum 0.0066469885268668
field min 4e-007
field max 0.000582169945
statistic Basic.rack[2].node[9].app 	hops
field count 122694
field mean 3.4934715634016
field stddev 1.1192508255919
field sum 428628
field sqrsum 1651100
field min 2
field max 5
statistic Basic.rack[2].eps.queue[0] 	dropsum
field count 0
field mean nan
field stddev nan
field sum 0
field sqrsum 0
field min nan
field max nan
statistic Basic.rack[2].eps.queue[1] 	dropsum
field count 0
field mean nan
field stddev nan
field sum 0
field sqrsum 0
field min nan
field max nan
statistic Basic.rack[2].eps.queue[2] 	dropsum
field count 0
field mean nan
field stddev nan
field sum 0
field sqrsum 0
field min nan
field max nan
statistic Basic.rack[2].eps.queue[3] 	dropsum
field count 0
field mean nan
field stddev nan
field sum 0
field sqrsum 0
field min nan
field max nan
statistic Basic.rack[3].node[0].app 	throughput
field count 123464
field mean 61732.5
field stddev 35641.131154889
field sum 7621741380
field sqrsum 6.2734299240734e+014
field min 1
field max 123464
statistic Basic.rack[3].node[0].app 	"End-to-End Delay"
field count 123464
field mean 0.00015997849340198
field stddev 0.00017087298131585
field sum 19.751584709383
field sqrsum 0.0067646490581613
field min 4e-007
field max 0.000604851439
statistic Basic.rack[3].node[0].app 	hops
field count 123464
field mean 3.4905640510594
field stddev 1.1189256375382
field sum 430959
field sqrsum 1658865
field min 2
field max 5
statistic Basic.rack[3].node[1].app 	throughput
field count 123251
field mean 61626
field stddev 35579.64335122
field sum 7595466126
field sqrsum 6.2410172881913e+014
field min 1
field max 123251
statistic Basic.rack[3].node[1].app 	"End-to-End Delay"
field count 123251
field mean 0.00015899136141375
field stddev 0.0001705031240272
field sum 19.595844285606
field sqrsum 0.0066986095721193
field min 4e-007
field max 0.000606516201
statistic Basic.rack[3].node[1].app 	hops
field count 123251
field mean 3.4844828845202
field stddev 1.1182392473589
field sum 429466
field sqrsum 1650586
field min 2
field max 5
statistic Basic.rack[3].node[2].app 	throughput
field count 123600
field mean 61800.5
field stddev 35680.390973194
field sum 7638541800
field sqrsum 6.294183905006e+014
field min 1
field max 123600
statistic Basic.rack[3].node[2].app 	"End-to-End Delay"
field count 123600
field mean 0.0001605467839775
field stddev 0.0001710121252094
field sum 19.843582499619
field sqrsum 0.0068004942730824
field min 4e-007
field max 0.00063174538
statistic Basic.rack[3].node[2].app 	hops
field count 123600
field mean 3.4902103559871
field stddev 1.1207205933798
field sum 431390
field sqrsum 1660884
field min 2
field max 5
statistic Basic.rack[3].node[3].app 	throughput
field count 123695
field mean 61848
field stddev 35707.815110981
field sum 7650288360
field sqrsum 6.3087082922292e+014
field min 1
field max 123695
statistic Basic.rack[3].node[3].app 	"End-to-End Delay"
field count 123695
field mean 0.00016070376923859
field stddev 0.00017113605968043
field sum 19.878252735967
field sqrsum 0.0068172044644096
field min 4e-007
field max 0.0006014187
statistic Basic.rack[3].node[3].app 	hops
field count 123695
field mean 3.4897611059461
field stddev 1.1194116602578
field sum 431666
field sqrsum 1661410
field min 2
field max 5
statistic Basic.rack[3].node[4].app 	throughput
field count 123619
field mean 61810
field stddev 35685.875800752
field sum 7640890390
field sqrsum 6.2970869971107e+014
field min 1
field max 123619
statistic Basic.rack[3].node[4].app 	"End-to-End Delay"
field count 123619
field mean 0.00015894186450094
field stddev 0.00017046411657181
field sum 19.648234347742
field sqrsum 0.0067150207044243
field min 4e-007
field max 0.000580961594
statistic Basic.rack[3].node[4].app 	hops
field count 123619
field mean 3.4841084299339
field stddev 1.1205239278225
field sum 430702
field sqrsum 1655824
field min 2
field max 5
statistic Basic.rack[3].node[5].app 	throughput
field count 123179
field mean 61590
field stddev 35558.858741529
field sum 7586594610
field sqrsum 6.2300862050833e+014
field min 1
field max 123179
statistic Basic.rack[3].node[5].app 	"End-to-End Delay"
field count 123179
field mean 0.0001604663032368
field stddev 0.00017102177322048
field sum 19.766078766405
field sqrsum 0.0067745547832871
field min 4e-007
field max 0.00060217621
statistic Basic.rack[3].node[5].app 	hops
field count 123179
field mean 3.4906112243158
field stddev 1.1204109466693
field sum 429970
field sqrsum 1655486
field min 2
field max 5
statistic Basic.rack[3].node[6].app 	throughput
field count 123212
field mean 61606.5
field stddev 35568.385020971
field sum 7590660078
field sqrsum 6.2350946990705e+014
field min 1
field max 123212
statistic Basic.rack[3].node[6].app 	"End-to-End Delay"
field count 123212
field mean 0.00015994546059254
field stddev 0.00017112949145093
field sum 19.707200090528
field sqrsum 0.0067603486442122
field min 4e-007
field max 0.000594398919
statistic Basic.rack[3].node[6].app 	hops
field count 123212
field mean 3.4823556147129
field stddev 1.1196476261382
field sum 429068
field sqrsum 1648626
field min 2
field max 5
statistic Basic.rack[3].node[7].app 	throughput
field count 123047
field mean 61524
field stddev 35520.753623762
field sum 7570343628
field sqrsum 6.2100790504422e+014
field min 1
field max 123047
statistic Basic.rack[3].node[7].app 	"End-to-End Delay"
field count 123047
field mean 0.00016032797765189
field stddev 0.00017115920992804
field sum 19.727876666132
field sqrsum 0.006767621603716
field min 4e-007
field max 0.000603096246
statistic Basic.rack[3].node[7].app 	hops
field count 123047
field mean 3.4863995058799
field stddev 1.120138177214
field sum 428991
field sqrsum 1650021
field min 2
field max 5
statistic Basic.rack[3].node[8].app 	throughput
field count 123809
field mean 61905
field stddev 35740.724076325
field sum 7664396145
field sqrsum 6.3261670300958e+014
field min 1
field max 123809
statistic Basic.rack[3].node[8].app 	"End-to-End Delay"
field count 123809
field mean 0.00015984932676243
field stddev 0.00017069494489812
field sum 19.790785297129
field sqrsum 0.0067709082096244
field min 4e-007
field max 0.000592642169
statistic Basic.rack[3].node[8].app 	hops
field count 123809
field mean 3.4886639905015
field stddev 1.1203446076353
field sum 431928
field sqrsum 1662252
field min 2
field max 5
statistic Basic.rack[3].node[9].app 	throughput
field count 123522
field mean 61761.5
field stddev 35657.874312696
field sum 7628904003
field sqrsum 6.2822752980704e+014
field min 1
field max 123522
statistic Basic.rack[3].node[9].app 	"End-to-End Delay"
field count 123522
field mean 0.00016040190809292
field stddev 0.00017080650773941
field sum 19.813164491454
field sqrsum 0.0067817776530506
field min 4e-007
field max 0.00060221296
statistic Basic.rack[3].node[9].app 	hops
field count 123522
field mean 3.4908518320623
field stddev 1.1177838264708
field sum 431197
field sqrsum 1659577
field min 2
field max 5
statistic Basic.rack[3].eps.queue[0] 	dropsum
field count 0
field mean nan
field stddev nan
field sum 0
field sqrsum 0
field min nan
field max nan
statistic Basic.rack[3].eps.queue[1] 	dropsum
field count 0
field mean nan
field stddev nan
field sum 0
field sqrsum 0
field min nan
field max nan
statistic Basic.rack[3].eps.queue[2] 	dropsum
field count 0
field mean nan
field stddev nan
field sum 0
field sqrsum 0
field min nan
field max nan
statistic Basic.rack[3].eps.queue[3] 	dropsum
field count 0
field mean nan
field stddev nan
field sum 0
field sqrsum 0
field min nan
field max nan
statistic Basic.rack[4].node[0].app 	throughput
field count 122775
field mean 61388
field stddev 35442.233987152
field sum 7536911700
field sqrsum 6.168987349489e+014
field min 1
field max 122775
statistic Basic.rack[4].node[0].app 	"End-to-End Delay"
field count 122775
field mean 0.00015420298219015
field stddev 0.00016335902879945
field sum 18.932271138395
field sqrsum 0.0061957807859424
field min 4e-007
field max 0.000579105077
statistic Basic.rack[4].node[0].app 	hops
field count 122775
field mean 2.9968478924863
field stddev 0.70718038349155
field sum 367938
field sqrsum 1164054
field min 2
field max 4
statistic Basic.rack[4].node[1].app 	throughput
field count 123550
field mean 61775.5
field stddev 35665.957216464
field sum 7632363025
field sqrsum 6.2865484528018e+014
field min 1
field max 123550
statistic Basic.rack[4].node[1].app 	"End-to-End Delay"
field count 123550
field mean 0.00015426871501793
field stddev 0.00016310451262528
field sum 19.059899740465
field sqrsum 0.0062271304241351
field min 4e-007
field max 0.000589266056
statistic Basic.rack[4].node[1].app 	hops
field count 123550
field mean 2.9974504249292
field stddev 0.70848873216938
field sum 370335
field sqrsum 1172077
field min 2
field max 4
statistic Basic.rack[4].node[2].app 	throughput
field count 123875
field mean 61938
field stddev 35759.776635208
field sum 7672569750
field sqrsum 6.3362894271075e+014
field min 1
field max 123875
statistic Basic.rack[4].node[2].app 	"End-to-End Delay"
field count 123875
field mean 0.00015419733282008
field stddev 0.00016303051163487
field sum 19.101194603087
field sqrsum 0.0062377938318271
field min 4e-007
field max 0.000582808229
statistic Basic.rack[4].node[2].app 	hops
field count 123875
field mean 2.9968758829465
field stddev 0.71015295340256
field sum 371238
field sqrsum 1175026
field min 2
field max 4
statistic Basic.rack[4].node[3].app 	throughput
field count 123498
field mean 61749.5
field stddev 35650.946109465
field sum 7625939751
field sqrsum 6.2786141355925e+014
field min 1
field max 123498
statistic Basic.rack[4].node[3].app 	"End-to-End Delay"
field count 123498
field mean 0.00015501228348672
field stddev 0.00016324660167523
field sum 19.143706986043
field sqrsum 0.0062586372263245
field min 4e-007
field max 0.000601319729
statistic Basic.rack[4].node[3].app 	hops
field count 123498
field mean 2.9986963351633
field stddev 0.70593943588457
field sum 370333
field sqrsum 1172061
field min 2
field max 4
statistic Basic.rack[4].node[4].app 	throughput
field count 123598
field mean 61799.5
field stddev 35679.813622925
field sum 7638294601
field sqrsum 6.293878368278e+014
field min 1
field max 123598
statistic Basic.rack[4].node[4].app 	"End-to-End Delay"
field count 123598
field mean 0.00015538892472413
field stddev 0.00016365479053315
field sum 19.205760318053
field sqrsum 0.0062946473570664
field min 4e-007
field max 0.000590537598
statistic Basic.rack[4].node[4].app 	hops
field count 123598
field mean 3.0000485444748
field stddev 0.70733272558847
field sum 370800
field sqrsum 1174256
field min 2
field max 4
statistic Basic.rack[4].node[5].app 	throughput
field count 123245
field mean 61623
field stddev 35577.911300412
field sum 7594726635
field sqrsum 6.240105876626e+014
field min 1
field max 123245
statistic Basic.rack[4].node[5].app 	"End-to-End Delay"
field count 123245
field mean 0.00015351416984784
field stddev 0.0001632391229375
field sum 18.919853862897
field sqrsum 0.0061885499148124
field min 4e-007
field max 0.00057013391
statistic Basic.rack[4].node[5].app 	hops
field count 123245
field mean 2.9955941417502
field stddev 0.70897820093975
field sum 369192
field sqrsum 1167898
field min 2
field max 4
statistic Basic.rack[4].node[6].app 	throughput
field count 123759
field mean 61880
field stddev 35726.290319595
field sum 7658206920
field sqrsum 6.3185057287716e+014
field min 1
field max 123759
statistic Basic.rack[4].node[6].app 	"End-to-End Delay"
field count 123759
field mean 0.00015409223573558
field stddev 0.00016310072436985
field sum 19.0703010024
field sqrsum 0.0062307766107646
field min 4e-007
field max 0.000584760647
statistic Basic.rack[4].node[6].app 	hops
field count 123759
field mean 2.9968729546942
field stddev 0.70649395696102
field sum 370890
field sqrsum 1173282
field min 2
field max 4
statistic Basic.rack[4].node[7].app 	throughput
field count 123661
field mean 61831
field stddev 35698.000156405
field sum 7646083291
field sqrsum 6.3035075259333e+014
field min 1
field max 123661
statistic Basic.rack[4].node[7].app 	"End-to-End Delay"
field count 123661
field mean 0.00015366140920938
field stddev 0.00016321329686523
field sum 19.001923524241
field sqrsum 0.0062139891830595
field min 4e-007
field max 0.000593015933
statistic Basic.rack[4].node[7].app 	hops
field count 123661
field mean 2.9934255747568
field stddev 0.70869267645274
field sum 370170
field sqrsum 1170184
field min 2
field max 4
statistic Basic.rack[4].node[8].app 	throughput
field count 122912
field mean 61456.5
field stddev 35481.782480591
field sum 7553741328
field sqrsum 6.189661539852e+014
field min 1
field max 122912
statistic Basic.rack[4].node[8].app 	"End-to-End Delay"
field count 122912
field mean 0.00015369773834343
field stddev 0.00016326834649016
field sum 18.891296415268
field sqrsum 0.0061799331149608
field min 4e-007
field max 0.000578595479
statistic Basic.rack[4].node[8].app 	hops
field count 122912
field mean 2.9938818016142
field stddev 0.70730177585215
field sum 367984
field sqrsum 1163190
field min 2
field max 4
statistic Basic.rack[4].node[9].app 	throughput
field count 123697
field mean 61849
field stddev 35708.39246125
field sum 7650535753
field sqrsum 6.3090143087114e+014
field min 1
field max 123697
statistic Basic.rack[4].node[9].app 	"End-to-End Delay"
field count 123697
field mean 0.00015336201707077
field stddev 0.00016313999847976
field sum 18.970421425603
field sqrsum 0.0062014689670381
field min 4e-007
field max 0.000574550036
statistic Basic.rack[4].node[9].app 	hops
field count 123697
field mean 2.9928049993128
field stddev 0.7093076139283
field sum 370201
field sqrsum 1170173
field min 2
field max 4
statistic Basic.rack[4].eps.queue[0] 	dropsum
field count 0
field mean nan
field stddev nan
field sum 0
field sqrsum 0
field min nan
field max nan
statistic Basic.rack[4].eps.queue[1] 	dropsum
field count 31340
field mean 15670.5
field stddev 9047.2230546174
field sum 491113470
field sqrsum 10261161137690
field min 1
field max 31340
statistic Basic.rack[4].eps.queue[2] 	dropsum
field count 0
field mean nan
field stddev nan
field sum 0
field sqrsum 0
field min nan
field max nan
statistic Basic.rack[4].eps.queue[3] 	dropsum
field count 0
field mean nan
field stddev nan
field sum 0
field sqrsum 0
field min nan
field max nan
statistic Basic.rack[5].node[0].app 	throughput
field count 123715
field mean 61858
field stddev 35713.588613673
field sum 7652762470
field sqrsum 6.3117689023819e+014
field min 1
field max 123715
statistic Basic.rack[5].node[0].app 	"End-to-End Delay"
field count 123715
field mean 0.00015344834970564
field stddev 0.0001631259395149
field sum 18.983862583833
field sqrsum 0.0062050808495797
field min 4e-007
field max 0.000552175173
statistic Basic.rack[5].node[0].app 	hops
field count 123715
field mean 2.9935820231985
field stddev 0.71057285765934
field sum 370351
field sqrsum 1171141
field min 2
field max 4
statistic Basic.rack[5].node[1].app 	throughput
field count 123234
field mean 61617.5
field stddev 35574.735873932
field sum 7593370995
field sqrsum 6.2384351858888e+014
field min 1
field max 123234
statistic Basic.rack[5].node[1].app 	"End-to-End Delay"
field count 123234
field mean 0.00015331646390203
field stddev 0.0001630748113133
field sum 18.893801112503
field sqrsum 0.0061739145094978
field min 4e-007
field max 0.000543629901
statistic Basic.rack[5].node[1].app 	hops
field count 123234
field mean 2.994676793742
field stddev 0.70932966385718
field sum 369046
field sqrsum 1167178
field min 2
field max 4
statistic Basic.rack[5].node[2].app 	throughput
field count 123679
field mean 61840
field stddev 35703.196308827
field sum 7648309360
field sqrsum 6.3062605166008e+014
field min 1
field max 123679
statistic Basic.rack[5].node[2].app 	"End-to-End Delay"
field count 123679
field mean 0.00015272505695109
field stddev 0.00016286133772629
field sum 18.888882318654
field sqrsum 0.0061652180597475
field min 4e-007
field max 0.000562617042
statistic Basic.rack[5].node[2].app 	hops
field count 123679
field mean 2.9932324808577
field stddev 0.70878759443717
field sum 370200
field sqrsum 1170228
field min 2
field max 4
statistic Basic.rack[5].node[3].app 	throughput
field count 123719
field mean 61860
field stddev 35714.743314211
field sum 7653257340
field sqrsum 6.3123811431742e+014
field min 1
field max 123719
statistic Basic.rack[5].node[3].app 	"End-to-End Delay"
field count 123719
field mean 0.00015328284934387
field stddev 0.00016292896236196
field sum 18.964000837974
field sqrsum 0.00619105515488
field min 4e-007
field max 0.00057351642
statistic Basic.rack[5].node[3].app 	hops
field count 123719
field mean 2.9946491646392
field stddev 0.70745795402467
field sum 370495
field sqrsum 1171423
field min 2
field max 4
statistic Basic.rack[5].node[4].app 	throughput
field count 123116
field mean 61558.5
field stddev 35540.672208049
field sum 7578836286
field sqrsum 6.2205319840355e+014
field min 1
field max 123116
statistic Basic.rack[5].node[4].app 	"End-to-End Delay"
field count 123116
field mean 0.0001532703530715
field stddev 0.00016289021959129
field sum 18.870032788751
field sqrsum 0.0061588544162562
field min 4e-007
field max 0.000562267922
statistic Basic.rack[5].node[4].app 	hops
field count 123116
field mean 2.9970353162871
field stddev 0.70757998717629
field sum 368983
field sqrsum 1167495
field min 2
field max 4
statistic Basic.rack[5].node[5].app 	throughput
field count 123100
field mean 61550.5
field stddev 35536.053405896
field sum 7576866550
field sqrsum 6.2181070715885e+014
field min 1
field max 123100
statistic Basic.rack[5].node[5].app 	"End-to-End Delay"
field count 123100
field mean 0.00015302184600654
field stddev 0.00016300777449367
field sum 18.836989243405
field sqrsum 0.006153400198233
field min 4e-007
field max 0.00056047676
statistic Basic.rack[5].node[5].app 	hops
field count 123100
field mean 2.9940211210398
field stddev 0.70922952526624
field sum 368564
field sqrsum 1165408
field min 2
field max 4
statistic Basic.rack[5].node[6].app 	throughput
field count 122914
field mean 61457.5
field stddev 35482.359830861
field sum 7553987155
field sqrsum 6.1899636944216e+014
field min 1
field max 122914
statistic Basic.rack[5].node[6].app 	"End-to-End Delay"
field count 122914
field mean 0.00015397255446837
field stddev 0.00016324367195359
field sum 18.925382559926
field sqrsum 0.006189436139099
field min 4e-007
field max 0.000556954287
statistic Basic.rack[5].node[6].app 	hops
field count 122914
field mean 2.9958019428218
field stddev 0.70891854544512
field sum 368226
field sqrsum 1164904
field min 2
field max 4
statistic Basic.rack[5].node[7].app 	throughput
field count 123754
field mean 61877.5
field stddev 35724.846943922
field sum 7657588135
field sqrsum 6.317739939019e+014
field min 1
field max 123754
statistic Basic.rack[5].node[7].app 	"End-to-End Delay"
field count 123754
field mean 0.00015311166593052
field stddev 0.000162897934107
field sum 18.948181105565
field sqrsum 0.0061850646285078
field min 4e-007
field max 0.000567890881
statistic Basic.rack[5].node[7].app 	hops
field count 123754
field mean 2.9929376020169
field stddev 0.70855277925802
field sum 370388
field sqrsum 1170678
field min 2
field max 4
statistic Basic.rack[5].node[8].app 	throughput
field count 123517
field mean 61759
field stddev 35656.430937023
field sum 7628286403
field sqrsum 6.2815124385504e+014
field min 1
field max 123517
statistic Basic.rack[5].node[8].app 	"End-to-End Delay"
field count 123517
field mean 0.00015319140585691
field stddev 0.00016294610490555
field sum 18.921742877228
field sqrsum 0.0061781752038856
field min 4e-007
field max 0.000560029112
statistic Basic.rack[5].node[8].app 	hops
field count 123517
field mean 2.9947861427982
field stddev 0.70778566088857
field sum 369907
field sqrsum 1169669
field min 2
field max 4
statistic Basic.rack[5].node[9].app 	throughput
field count 123566
field mean 61783.5
field stddev 35670.576018618
field sum 7634339961
field sqrsum 6.2889911252727e+014
field min 1
field max 123566
statistic Basic.rack[5].node[9].app 	"End-to-End Delay"
field count 123566
field mean 0.00015410790424768
field stddev 0.00016344382334409
field sum 19.042497296268
field sqrsum 0.0062355003509731
field min 4e-007
field max 0.000559849847
statistic Basic.rack[5].node[9].app 	hops
field count 123566
field mean 2.9973050839228
field stddev 0.70925292857427
field sum 370365
field sqrsum 1172255
field min 2
field max 4
statistic Basic.rack[5].eps.queue[0] 	dropsum
field count 30996
field mean 15498.5
field stddev 8947.918808304
field sum 480391506
field sqrsum 9926970210486
field min 1
field max 30996
statistic Basic.rack[5].eps.queue[1] 	dropsum
field count 0
field mean nan
field stddev nan
field sum 0
field sqrsum 0
field min nan
field max nan
statistic Basic.rack[5].eps.queue[2] 	dropsum
field count 0
field mean nan
field stddev nan
field sum 0
field sqrsum 0
field min nan
field max nan
statistic Basic.rack[5].eps.queue[3] 	dropsum
field count 0
field mean nan
field stddev nan
field sum 0
field sqrsum 0
field min nan
field max nan
statistic Basic.rack[6].node[0].app 	throughput
field count 123005
field mean 61503
field stddev 35508.629268109
field sum 7565176515
field sqrsum 6.2037221321056e+014
field min 1
field max 123005
statistic Basic.rack[6].node[0].app 	"End-to-End Delay"
field count 123005
field mean 0.00015883520323552
field stddev 0.00017062889343464
field sum 19.537524173985
field sqrsum 0.006684412050563
field min 4e-007
field max 0.000591853183
statistic Basic.rack[6].node[0].app 	hops
field count 123005
field mean 3.48572822243
field stddev 1.1221681933
field sum 428762
field sqrsum 1649442
field min 2
field max 5
statistic Basic.rack[6].node[1].app 	throughput
field count 123020
field mean 61510.5
field stddev 35512.959395128
field sum 7567021710
field sqrsum 6.2059919618337e+014
field min 1
field max 123020
statistic Basic.rack[6].node[1].app 	"End-to-End Delay"
field count 123020
field mean 0.00015956687459463
field stddev 0.00017081602412822
field sum 19.629916912632
field sqrsum 0.0067217469086426
field min 4e-007
field max 0.000593253939
statistic Basic.rack[6].node[1].app 	hops
field count 123020
field mean 3.4932693870915
field stddev 1.1166432570101
field sum 429742
field sqrsum 1654596
field min 2
field max 5
statistic Basic.rack[6].node[2].app 	throughput
field count 122869
field mean 61435
field stddev 35469.369449804
field sum 7548457015
field sqrsum 6.183167594697e+014
field min 1
field max 122869
statistic Basic.rack[6].node[2].app 	"End-to-End Delay"
field count 122869
field mean 0.0001597568596502
field stddev 0.00017088192389746
field sum 19.629165588361
field sqrsum 0.00672371709407
field min 4e-007
field max 0.000584672944
statistic Basic.rack[6].node[2].app 	hops
field count 122869
field mean 3.490115488854
field stddev 1.1187044016243
field sum 428827
field sqrsum 1650425
field min 2
field max 5
statistic Basic.rack[6].node[3].app 	throughput
field count 123104
field mean 61552.5
field stddev 35537.208106434
field sum 7577358960
field sqrsum 6.2187132406088e+014
field min 1
field max 123104
statistic Basic.rack[6].node[3].app 	"End-to-End Delay"
field count 123104
field mean 0.00015975778427621
field stddev 0.00017095988055467
field sum 19.666822275539
field sqrsum 0.0067398938938023
field min 4e-007
field max 0.000591019972
statistic Basic.rack[6].node[3].app 	hops
field count 123104
field mean 3.4921123602807
field stddev 1.1181996016967
field sum 429893
field sqrsum 1655159
field min 2
field max 5
statistic Basic.rack[6].node[4].app 	throughput
field count 123856
field mean 61928.5
field stddev 35754.291807651
field sum 7670216296
field sqrsum 6.3333742977702e+014
field min 1
field max 123856
statistic Basic.rack[6].node[4].app 	"End-to-End Delay"
field count 123856
field mean 0.000159756673675
field stddev 0.00017083009712465
field sum 19.786822574691
field sqrsum 0.0067755277717967
field min 4e-007
field max 0.000585234688
statistic Basic.rack[6].node[4].app 	hops
field count 123856
field mean 3.4933067433148
field stddev 1.120730524436
field sum 432667
field sqrsum 1667005
field min 2
field max 5
statistic Basic.rack[6].node[5].app 	throughput
field count 124034
field mean 62017.5
field stddev 35805.675981609
field sum 7692278595
field sqrsum 6.3607195292768e+014
field min 1
field max 124034
statistic Basic.rack[6].node[5].app 	"End-to-End Delay"
field count 124034
field mean 0.00015974295950166
field stddev 0.00017126901540449
field sum 19.813558238829
field sqrsum 0.0068033458018905
field min 4e-007
field max 0.000564656859
statistic Basic.rack[6].node[5].app 	hops
field count 124034
field mean 3.4873663672864
field stddev 1.1204307785051
field sum 432552
field sqrsum 1664174
field min 2
field max 5
statistic Basic.rack[6].node[6].app 	throughput
field count 123559
field mean 61780
field stddev 35668.555292676
field sum 7633475020
field sqrsum 6.2879223782246e+014
field min 1
field max 123559
statistic Basic.rack[6].node[6].app 	"End-to-End Delay"
field count 123559
field mean 0.00015981111227921
field stddev 0.00017084252549414
field sum 19.746101222107
field sqrsum 0.0067619545671329
field min 4e-007
field max 0.000574696943
statistic Basic.rack[6].node[6].app 	hops
field count 123559
field mean 3.4905186995686
field stddev 1.1200487305959
field sum 431285
field sqrsum 1660413
field min 2
field max 5
statistic Basic.rack[6].node[7].app 	throughput
field count 123669
field mean 61835
field stddev 35700.309557481
field sum 7647072615
field sqrsum 6.304730978405e+014
field min 1
field max 123669
statistic Basic.rack[6].node[7].app 	"End-to-End Delay"
field count 123669
field mean 0.00015909743979042
field stddev 0.00017064636895039
field sum 19.675421281441
field sqrsum 0.0067315439730988
field min 4e-007
field max 0.000598858867
statistic Basic.rack[6].node[7].app 	hops
field count 123669
field mean 3.4889341710534
field stddev 1.1195702216044
field sum 431473
field sqrsum 1660391
field min 2
field max 5
statistic Basic.rack[6].node[8].app 	throughput
field count 123566
field mean 61783.5
field stddev 35670.576018618
field sum 7634339961
field sqrsum 6.2889911252727e+014
field min 1
field max 123566
statistic Basic.rack[6].node[8].app 	"End-to-End Delay"
field count 123566
field mean 0.00015904596465871
field stddev 0.00017061192273908
field sum 19.652673669018
field sqrsum 0.0067224613699631
field min 4e-007
field max 0.000570783135
statistic Basic.rack[6].node[8].app 	hops
field count 123566
field mean 3.4859103636923
field stddev 1.1212170103117
field sum 430740
field sqrsum 1656858
field min 2
field max 5
statistic Basic.rack[6].node[9].app 	throughput
field count 122920
field mean 61460.5
field stddev 35484.091881668
field sum 7554724660
field sqrsum 6.1908702171302e+014
field min 1
field max 122920
statistic Basic.rack[6].node[9].app 	"End-to-End Delay"
field count 122920
field mean 0.00015958505168417
field stddev 0.0001708863468863
field sum 19.616194553018
field sqrsum 0.0067199497048761
field min 4e-007
field max 0.000570360969
statistic Basic.rack[6].node[9].app 	hops
field count 122920
field mean 3.4899934917019
field stddev 1.1213796267202
field sum 428990
field sqrsum 1651742
field min 2
field max 5
statistic Basic.rack[6].eps.queue[0] 	dropsum
field count 0
field mean nan
field stddev nan
field sum 0
field sqrsum 0
field min nan
field max nan
statistic Basic.rack[6].eps.queue[1] 	dropsum
field count 0
field mean nan
field stddev nan
field sum 0
field sqrsum 0
field min nan
field max nan
statistic Basic.rack[6].eps.queue[2] 	dropsum
field count 0
field mean nan
field stddev nan
field sum 0
field sqrsum 0
field min nan
field max nan
statistic Basic.rack[6].eps.queue[3] 	dropsum
field count 0
field mean nan
field stddev nan
field sum 0
field sqrsum 0
field min nan
field max nan
statistic Basic.rack[7].node[0].app 	throughput
field count 123494
field mean 61747.5
field stddev 35649.791408927
field sum 7625445765
field sqrsum 6.278004080172e+014
field min 1
field max 123494
statistic Basic.rack[7].node[0].app 	"End-to-End Delay"
field count 123494
field mean 0.00015847681257529
field stddev 0.00017002964260853
field sum 19.570935492173
field sqrsum 0.0066717319070104
field min 4e-007
field max 0.00060886047
statistic Basic.rack[7].node[0].app 	hops
field count 123494
field mean 3.4874487829368
field stddev 1.1205870194597
field sum 430679
field sqrsum 1657043
field min 2
field max 5
statistic Basic.rack[7].node[1].app 	throughput
field count 123177
field mean 61589
field stddev 35558.28139126
field sum 7586348253
field sqrsum 6.229782746226e+014
field min 1
field max 123177
statistic Basic.rack[7].node[1].app 	"End-to-End Delay"
field count 123177
field mean 0.00015842477662905
field stddev 0.00017017039187953
field sum 19.514288710837
field sqrsum 0.0066584727909586
field min 4e-007
field max 0.000645259301
statistic Basic.rack[7].node[1].app 	hops
field count 123177
field mean 3.487761513919
field stddev 1.119158212345
field sum 429612
field sqrsum 1652664
field min 2
field max 5
statistic Basic.rack[7].node[2].app 	throughput
field count 123176
field mean 61588.5
field stddev 35557.992716125
field sum 7586225076
field sqrsum 6.2296310204928e+014
field min 1
field max 123176
statistic Basic.rack[7].node[2].app 	"End-to-End Delay"
field count 123176
field mean 0.00015787073106932
field stddev 0.00017002767302645
field sum 19.445885170194
field sqrsum 0.0066308526349468
field min 4e-007
field max 0.000619803373
statistic Basic.rack[7].node[2].app 	hops
field count 123176
field mean 3.4846073910502
field stddev 1.1186367635454
field sum 429220
field sqrsum 1649798
field min 2
field max 5
statistic Basic.rack[7].node[3].app 	throughput
field count 122803
field mean 61402
field stddev 35450.31689092
field sum 7540349806
field sqrsum 6.1732089826741e+014
field min 1
field max 122803
statistic Basic.rack[7].node[3].app 	"End-to-End Delay"
field count 122803
field mean 0.00015900198438791
field stddev 0.00017037698399365
field sum 19.525920688789
field sqrsum 0.0066693954808138
field min 4e-007
field max 0.000621076883
statistic Basic.rack[7].node[3].app 	hops
field count 122803
field mean 3.4894098678371
field stddev 1.1203712851224
field sum 428510
field sqrsum 1649392
field min 2
field max 5
statistic Basic.rack[7].node[4].app 	throughput
field count 123612
field mean 61806.5
field stddev 35683.855074809
field sum 7640025078
field sqrsum 6.2960173330285e+014
field min 1
field max 123612
statistic Basic.rack[7].node[4].app 	"End-to-End Delay"
field count 123612
field mean 0.00015938667576242
field stddev 0.00017050996192908
field sum 19.702105764344
field sqrsum 0.0067340757370846
field min 4e-007
field max 0.000615469589
statistic Basic.rack[7].node[4].app 	hops
field count 123612
field mean 3.4922580332007
field stddev 1.1201009477244
field sum 431685
field sqrsum 1662641
field min 2
field max 5
statistic Basic.rack[7].node[5].app 	throughput
field count 123088
field mean 61544.5
field stddev 35532.58930428
field sum 7575389416
field sqrsum 6.2162888008754e+014
field min 1
field max 123088
statistic Basic.rack[7].node[5].app 	"End-to-End Delay"
field count 123088
field mean 0.00015934356873374
field stddev 0.00017044984632897
field sum 19.613281188299
field sqrsum 0.0067013153071506
field min 4e-007
field max 0.000609711804
statistic Basic.rack[7].node[5].app 	hops
field count 123088
field mean 3.4879923306902
field stddev 1.1187513476087
field sum 429330
field sqrsum 1651556
field min 2
field max 5
statistic Basic.rack[7].node[6].app 	throughput
field count 123178
field mean 61589.5
field stddev 35558.570066394
field sum 7586471431
field sqrsum 6.2299344744229e+014
field min 1
field max 123178
statistic Basic.rack[7].node[6].app 	"End-to-End Delay"
field count 123178
field mean 0.0001594793409257
field stddev 0.00017034713359653
field sum 19.644346256546
field sqrsum 0.0067072355544588
field min 4e-007
field max 0.000622335606
statistic Basic.rack[7].node[6].app 	hops
field count 123178
field mean 3.495242656968
field stddev 1.120559752005
field sum 430537
field sqrsum 1659499
field min 2
field max 5
statistic Basic.rack[7].node[7].app 	throughput
field count 123533
field mean 61767
field stddev 35661.049739176
field sum 7630262811
field sqrsum 6.2839538064178e+014
field min 1
field max 123533
statistic Basic.rack[7].node[7].app 	"End-to-End Delay"
field count 123533
field mean 0.00015903600210706
field stddev 0.00017018872326151
field sum 19.646194448291
field sqrsum 0.0067024579645077
field min 4e-007
field max 0.000601859393
statistic Basic.rack[7].node[7].app 	hops
field count 123533
field mean 3.4905571790534
field stddev 1.1196157585792
field sum 431199
field sqrsum 1659977
field min 2
field max 5
statistic Basic.rack[7].node[8].app 	throughput
field count 123604
field mean 61802.5
field stddev 35681.545673733
field sum 7639036210
field sqrsum 6.2947950081263e+014
field min 1
field max 123604
statistic Basic.rack[7].node[8].app 	"End-to-End Delay"
field count 123604
field mean 0.00015901536044693
field stddev 0.00017050704619977
field sum 19.654934612682
field sqrsum 0.0067189036165009
field min 4e-007
field max 0.000627215022
statistic Basic.rack[7].node[8].app 	hops
field count 123604
field mean 3.4897171612569
field stddev 1.1200084057398
field sum 431343
field sqrsum 1660315
field min 2
field max 5
statistic Basic.rack[7].node[9].app 	throughput
field count 123199
field mean 61600
field stddev 35564.632244221
field sum 7589058400
field sqrsum 6.233121335672e+014
field min 1
field max 123199
statistic Basic.rack[7].node[9].app 	"End-to-End Delay"
field count 123199
field mean 0.00015910817770361
field stddev 0.0001705733498179
field sum 19.601968384907
field sqrsum 0.0067033122553007
field min 4e-007
field max 0.000611441732
statistic Basic.rack[7].node[9].app 	hops
field count 123199
field mean 3.489703650192
field stddev 1.1198373503174
field sum 429928
field sqrsum 1654816
field min 2
field max 5
statistic Basic.rack[7].eps.queue[0] 	dropsum
field count 0
field mean nan
field stddev nan
field sum 0
field sqrsum 0
field min nan
field max nan
statistic Basic.rack[7].eps.queue[1] 	dropsum
field count 0
field mean nan
field stddev nan
field sum 0
field sqrsum 0
field min nan
field max nan
statistic Basic.rack[7].eps.queue[2] 	dropsum
field count 0
field mean nan
field stddev nan
field sum 0
field sqrsum 0
field min nan
field max nan
statistic Basic.rack[7].eps.queue[3] 	dropsum
field count 0
field mean nan
field stddev nan
field sum 0
field sqrsum 0
field min nan
field max nan
statistic Basic.rack[8].node[0].app 	throughput
field count 122563
field mean 61282
field stddev 35381.034858617
field sum 7510905766
field sqrsum 6.1370859923409e+014
field min 1
field max 122563
statistic Basic.rack[8].node[0].app 	"End-to-End Delay"
field count 122563
field mean 0.00015286651209613
field stddev 0.00016256954300846
field sum 18.735778322037
field sqrsum 0.00610324657105
field min 4e-007
field max 0.000627293891
statistic Basic.rack[8].node[0].app 	hops
field count 122563
field mean 2.9962549872311
field stddev 0.70781191541411
field sum 367230
field sqrsum 1161718
field min 2
field max 4
statistic Basic.rack[8].node[1].app 	throughput
field count 123653
field mean 61827
field stddev 35695.690755328
field sum 7645094031
field sqrsum 6.3022842317484e+014
field min 1
field max 123653
statistic Basic.rack[8].node[1].app 	"End-to-End Delay"
field count 123653
field mean 0.00015318523575016
field stddev 0.00016261156418004
field sum 18.941813956214
field sqrsum 0.0061712768190079
field min 4e-007
field max 0.000612348895
statistic Basic.rack[8].node[1].app 	hops
field count 123653
field mean 2.9977113373715
field stddev 0.70782896095629
field sum 370676
field sqrsum 1173132
field min 2
field max 4
statistic Basic.rack[8].node[2].app 	throughput
field count 123639
field mean 61820
field stddev 35691.649303444
field sum 7643362980
field sqrsum 6.3001438477714e+014
field min 1
field max 123639
statistic Basic.rack[8].node[2].app 	"End-to-End Delay"
field count 123639
field mean 0.00015333068780865
field stddev 0.00016281284531207
field sum 18.957652909974
field sqrsum 0.006184188857971
field min 4e-007
field max 0.00064815591
statistic Basic.rack[8].node[2].app 	hops
field count 123639
field mean 2.9979051917275
field stddev 0.70826943312899
field sum 370658
field sqrsum 1173220
field min 2
field max 4
statistic Basic.rack[8].node[3].app 	throughput
field count 123100
field mean 61550.5
field stddev 35536.053405896
field sum 7576866550
field sqrsum 6.2181070715885e+014
field min 1
field max 123100
statistic Basic.rack[8].node[3].app 	"End-to-End Delay"
field count 123100
field mean 0.0001532381498484
field stddev 0.0001625226574976
field sum 18.863616246338
field sqrsum 0.0061421151474547
field min 4e-007
field max 0.000613746172
statistic Basic.rack[8].node[3].app 	hops
field count 123100
field mean 2.9978960194963
field stddev 0.70793894419874
field sum 369041
field sqrsum 1168041
field min 2
field max 4
statistic Basic.rack[8].node[4].app 	throughput
field count 122478
field mean 61239.5
field stddev 35356.497472176
field sum 7500491481
field sqrsum 6.1243263057044e+014
field min 1
field max 122478
statistic Basic.rack[8].node[4].app 	"End-to-End Delay"
field count 122478
field mean 0.00015285377034244
field stddev 0.00016226236624266
field sum 18.721224084002
field sqrsum 0.0060863158665158
field min 4e-007
field max 0.000602019856
statistic Basic.rack[8].node[4].app 	hops
field count 122478
field mean 2.9976403925603
field stddev 0.70931924910386
field sum 367145
field sqrsum 1162191
field min 2
field max 4
statistic Basic.rack[8].node[5].app 	throughput
field count 122905
field mean 61453
field stddev 35479.761754649
field sum 7552880965
field sqrsum 6.188604076292e+014
field min 1
field max 122905
statistic Basic.rack[8].node[5].app 	"End-to-End Delay"
field count 122905
field mean 0.00015224500441665
field stddev 0.00016239644006239
field sum 18.711672267829
field sqrsum 0.0060900571177265
field min 4e-007
field max 0.000611062693
statistic Basic.rack[8].node[5].app 	hops
field count 122905
field mean 2.9923599528091
field stddev 0.70932309059891
field sum 367776
field sqrsum 1162356
field min 2
field max 4
statistic Basic.rack[8].node[6].app 	throughput
field count 123252
field mean 61626.5
field stddev 35579.932026354
field sum 7595589378
field sqrsum 6.2411691987463e+014
field min 1
field max 123252
statistic Basic.rack[8].node[6].app 	"End-to-End Delay"
field count 123252
field mean 0.00015274313188431
field stddev 0.00016248334855575
field sum 18.825896491005
field sqrsum 0.0061294561436642
field min 4e-007
field max 0.000610265237
statistic Basic.rack[8].node[6].app 	hops
field count 123252
field mean 2.9938905656703
field stddev 0.70731844721691
field sum 369003
field sqrsum 1166417
field min 2
field max 4
statistic Basic.rack[8].node[7].app 	throughput
field count 123758
field mean 61879.5
field stddev 35726.001644461
field sum 7658083161
field sqrsum 6.3183525658708e+014
field min 1
field max 123758
statistic Basic.rack[8].node[7].app 	"End-to-End Delay"
field count 123758
field mean 0.00015259539328143
field stddev 0.00016236250510481
field sum 18.884900681724
field sqrsum 0.0061441792818489
field min 4e-007
field max 0.000610025865
statistic Basic.rack[8].node[7].app 	hops
field count 123758
field mean 2.9989253219994
field stddev 0.70812512150977
field sum 371141
field sqrsum 1175081
field min 2
field max 4
statistic Basic.rack[8].node[8].app 	throughput
field count 123456
field mean 61728.5
field stddev 35638.821753812
field sum 7620753696
field sqrsum 6.2722105244682e+014
field min 1
field max 123456
statistic Basic.rack[8].node[8].app 	"End-to-End Delay"
field count 123456
field mean 0.00015354226609445
field stddev 0.00016272890842166
field sum 18.955714002957
field sqrsum 0.0061796778101177
field min 4e-007
field max 0.000609862913
statistic Basic.rack[8].node[8].app 	hops
field count 123456
field mean 2.9971406817004
field stddev 0.70721268125151
field sum 370015
field sqrsum 1170733
field min 2
field max 4
statistic Basic.rack[8].node[9].app 	throughput
field count 123367
field mean 61684
field stddev 35613.129666833
field sum 7609770028
field sqrsum 6.2586553595286e+014
field min 1
field max 123367
statistic Basic.rack[8].node[9].app 	"End-to-End Delay"
field count 123367
field mean 0.00015332785516681
field stddev 0.00016263344292112
field sum 18.915597508364
field sqrsum 0.0061632738832431
field min 4e-007
field max 0.000594301959
statistic Basic.rack[8].node[9].app 	hops
field count 123367
field mean 2.9953634278211
field stddev 0.70667302683924
field sum 369529
field sqrsum 1168481
field min 2
field max 4
statistic Basic.rack[8].eps.queue[0] 	dropsum
field count 0
field mean nan
field stddev nan
field sum 0
field sqrsum 0
field min nan
field max nan
statistic Basic.rack[8].eps.queue[1] 	dropsum
field count 31917
field mean 15959
field stddev 9213.7886072994
field sum 509363403
field sqrsum 10838404276835
field min 1
field max 31917
statistic Basic.rack[8].eps.queue[2] 	dropsum
field count 0
field mean nan
field stddev nan
field sum 0
field sqrsum 0
field min nan
field max nan
statistic Basic.rack[8].eps.queue[3] 	dropsum
field count 0
field mean nan
field stddev nan
field sum 0
field sqrsum 0
field min nan
field max nan
statistic Basic.rack[9].node[0].app 	throughput
field count 122976
field mean 61488.5
field stddev 35500.257689206
field sum 7561609776
field sqrsum 6.1993353641218e+014
field min 1
field max 122976
statistic Basic.rack[9].node[0].app 	"End-to-End Delay"
field count 122976
field mean 0.00015462705188877
field stddev 0.00016371097914885
field sum 19.015416333073
field sqrsum 0.00623618575325
field min 4e-007
field max 0.000580525404
statistic Basic.rack[9].node[0].app 	hops
field count 122976
field mean 2.9948770491803
field stddev 0.70974268730236
field sum 368298
field sqrsum 1164954
field min 2
field max 4
statistic Basic.rack[9].node[1].app 	throughput
field count 123751
field mean 61876
field stddev 35723.980918518
field sum 7657216876
field sqrsum 6.3172804948688e+014
field min 1
field max 123751
statistic Basic.rack[9].node[1].app 	"End-to-End Delay"
field count 123751
field mean 0.00015449663457989
field stddev 0.00016348079362061
field sum 19.119113025896
field sqrsum 0.006261177391653
field min 4e-007
field max 0.000581919603
statistic Basic.rack[9].node[1].app 	hops
field count 123751
field mean 2.9978909261339
field stddev 0.7074121255731
field sum 370992
field sqrsum 1174122
field min 2
field max 4
statistic Basic.rack[9].node[2].app 	throughput
field count 123376
field mean 61688.5
field stddev 35615.727743044
field sum 7610880376
field sqrsum 6.2600252180638e+014
field min 1
field max 123376
statistic Basic.rack[9].node[2].app 	"End-to-End Delay"
field count 123376
field mean 0.00015467248671276
field stddev 0.00016345495886887
field sum 19.082872720673
field sqrsum 0.0062478698488668
field min 4e-007
field max 0.000576476755
statistic Basic.rack[9].node[2].app 	hops
field count 123376
field mean 2.9947639735443
field stddev 0.70823563201179
field sum 369482
field sqrsum 1168396
field min 2
field max 4
statistic Basic.rack[9].node[3].app 	throughput
field count 122917
field mean 61459
field stddev 35483.225856264
field sum 7554355903
field sqrsum 6.1904169447134e+014
field min 1
field max 122917
statistic Basic.rack[9].node[3].app 	"End-to-End Delay"
field count 122917
field mean 0.00015415269019792
field stddev 0.00016360373068201
field sum 18.947986221058
field sqrsum 0.0062108749158787
field min 4e-007
field max 0.000594070884
statistic Basic.rack[9].node[3].app 	hops
field count 122917
field mean 2.9952895042996
field stddev 0.70812010996344
field sum 368172
field sqrsum 1164416
field min 2
field max 4
statistic Basic.rack[9].node[4].app 	throughput
field count 122679
field mean 61340
field stddev 35414.52117423
field sum 7525129860
field sqrsum 6.1545277910658e+014
field min 1
field max 122679
statistic Basic.rack[9].node[4].app 	"End-to-End Delay"
field count 122679
field mean 0.00015465364823423
field stddev 0.00016356567279057
field sum 18.972754911727
field sqrsum 0.0062162997691112
field min 4e-007
field max 0.000587235309
statistic Basic.rack[9].node[4].app 	hops
field count 122679
field mean 2.9968698799306
field stddev 0.70975207449777
field sum 367653
field sqrsum 1163607
field min 2
field max 4
statistic Basic.rack[9].node[5].app 	throughput
field count 123460
field mean 61730.5
field stddev 35639.976454351
field sum 7621247530
field sqrsum 6.2728202045171e+014
field min 1
field max 123460
statistic Basic.rack[9].node[5].app 	"End-to-End Delay"
field count 123460
field mean 0.00015439418760881
field stddev 0.00016341591455474
field sum 19.061506402184
field sqrsum 0.0062399288998846
field min 4e-007
field max 0.000591160477
statistic Basic.rack[9].node[5].app 	hops
field count 123460
field mean 2.9954317187753
field stddev 0.70678553210606
field sum 369816
field sqrsum 1169432
field min 2
field max 4
statistic Basic.rack[9].node[6].app 	throughput
field count 123470
field mean 61735.5
field stddev 35642.863205697
field sum 7622482185
field sqrsum 6.274344577487e+014
field min 1
field max 123470
statistic Basic.rack[9].node[6].app 	"End-to-End Delay"
field count 123470
field mean 0.00015503983079643
field stddev 0.00016387483274207
field sum 19.142767908435
field sqrsum 0.006283646653285
field min 4e-007
field max 0.00060002078
statistic Basic.rack[9].node[6].app 	hops
field count 123470
field mean 2.9966469587754
field stddev 0.70691267710824
field sum 369996
field sqrsum 1170448
field min 2
field max 4
statistic Basic.rack[9].node[7].app 	throughput
field count 123333
field mean 61667
field stddev 35603.314712257
field sum 7605576111
field sqrsum 6.2534821419068e+014
field min 1
field max 123333
statistic Basic.rack[9].node[7].app 	"End-to-End Delay"
field count 123333
field mean 0.00015421228196503
field stddev 0.00016346797913644
field sum 19.019463371593
field sqrsum 0.0062286854442742
field min 4e-007
field max 0.000591195415
statistic Basic.rack[9].node[7].app 	hops
field count 123333
field mean 2.9959864756391
field stddev 0.70878474111825
field sum 369504
field sqrsum 1168988
field min 2
field max 4
statistic Basic.rack[9].node[8].app 	throughput
field count 123082
field mean 61541.5
field stddev 35530.857253473
field sum 7574650903
field sqrsum 6.2153797984566e+014
field min 1
field max 123082
statistic Basic.rack[9].node[8].app 	"End-to-End Delay"
field count 123082
field mean 0.00015399144360428
field stddev 0.00016353908123123
field sum 18.953574861703
field sqrsum 0.006210493525998
field min 4e-007
field max 0.000582233109
statistic Basic.rack[9].node[8].app 	hops
field count 123082
field mean 2.9953933150258
field stddev 0.7093889856728
field sum 368679
field sqrsum 1166277
field min 2
field max 4
statistic Basic.rack[9].node[9].app 	throughput
field count 123514
field mean 61757.5
field stddev 35655.564911619
field sum 7627915855
field sqrsum 6.2810547524826e+014
field min 1
field max 123514
statistic Basic.rack[9].node[9].app 	"End-to-End Delay"
field count 123514
field mean 0.00015432650704468
field stddev 0.00016357573454578
field sum 19.061484191117
field sqrsum 0.0062465322007004
field min 4e-007
field max 0.000551958861
statistic Basic.rack[9].node[9].app 	hops
field count 123514
field mean 2.9942192787862
field stddev 0.70870437273898
field sum 369828
field sqrsum 1169382
field min 2
field max 4
statistic Basic.rack[9].eps.queue[0] 	dropsum
field count 30303
field mean 15152
field stddev 8747.8669400031
field sum 459151056
field sqrsum 9275922683664
field min 1
field max 30303
statistic Basic.rack[9].eps.queue[1] 	dropsum
field count 0
field mean nan
field stddev nan
field sum 0
field sqrsum 0
field min nan
field max nan
statistic Basic.rack[9].eps.queue[2] 	dropsum
field count 0
field mean nan
field stddev nan
field sum 0
field sqrsum 0
field min nan
field max nan
statistic Basic.rack[9].eps.queue[3] 	dropsum
field count 0
field mean nan
field stddev nan
field sum 0
field sqrsum 0
field min nan
field max nan
statistic Basic.rack[10].node[0].app 	throughput
field count 122821
field mean 61411
field stddev 35455.513043343
field sum 7542560431
field sqrsum 6.1759239065071e+014
field min 1
field max 122821
statistic Basic.rack[10].node[0].app 	"End-to-End Delay"
field count 122821
field mean 0.00016063277504967
field stddev 0.00017133077046144
field sum 19.729078064376
field sqrsum 0.0067744234442788
field min 4e-007
field max 0.000627789306
statistic Basic.rack[10].node[0].app 	hops
field count 122821
field mean 3.4906652771106
field stddev 1.1191969248332
field sum 428727
field sqrsum 1650387
field min 2
field max 5
statistic Basic.rack[10].node[1].app 	throughput
field count 123154
field mean 61577.5
field stddev 35551.641863164
field sum 7583515435
field sqrsum 6.226293677598e+014
field min 1
field max 123154
statistic Basic.rack[10].node[1].app 	"End-to-End Delay"
field count 123154
field mean 0.00016058901451645
field stddev 0.0001712412964547
field sum 19.777179493759
field sqrsum 0.0067872848110172
field min 4e-007
field max 0.000651073762
statistic Basic.rack[10].node[1].app 	hops
field count 123154
field mean 3.4881774039008
field stddev 1.1194784710431
field sum 429583
field sqrsum 1652801
field min 2
field max 5
statistic Basic.rack[10].node[2].app 	throughput
field count 123250
field mean 61625.5
field stddev 35579.354676085
field sum 7595342875
field sqrsum 6.2408653801012e+014
field min 1
field max 123250
statistic Basic.rack[10].node[2].app 	"End-to-End Delay"
field count 123250
field mean 0.00016019519908389
field stddev 0.00017145444194748
field sum 19.744058287089
field sqrsum 0.0067860080644274
field min 4e-007
field max 0.000654528057
statistic Basic.rack[10].node[2].app 	hops
field count 123250
field mean 3.4840973630832
field stddev 1.1193397929289
field sum 429415
field sqrsum 1650545
field min 2
field max 5
statistic Basic.rack[10].node[3].app 	throughput
field count 124081
field mean 62041
field stddev 35819.243712935
field sum 7698109321
field sqrsum 6.3679530114244e+014
field min 1
field max 124081
statistic Basic.rack[10].node[3].app 	"End-to-End Delay"
field count 124081
field mean 0.00016027397126524
field stddev 0.00017137076338761
field sum 19.886954628563
field sqrsum 0.0068313350092373
field min 4e-007
field max 0.000619673683
statistic Basic.rack[10].node[3].app 	hops
field count 124081
field mean 3.4867787977208
field stddev 1.1205561296937
field sum 432643
field sqrsum 1664331
field min 2
field max 5
statistic Basic.rack[10].node[4].app 	throughput
field count 124023
field mean 62012
field stddev 35802.500555129
field sum 7690914276
field sqrsum 6.3590273780632e+014
field min 1
field max 124023
statistic Basic.rack[10].node[4].app 	"End-to-End Delay"
field count 124023
field mean 0.00016063886284501
field stddev 0.00017129557994927
field sum 19.922913686626
field sqrsum 0.0068394695151039
field min 4e-007
field max 0.000608741254
statistic Basic.rack[10].node[4].app 	hops
field count 124023
field mean 3.4929085734098
field stddev 1.1195907102685
field sum 433201
field sqrsum 1668591
field min 2
field max 5
statistic Basic.rack[10].node[5].app 	throughput
field count 123650
field mean 61825.5
field stddev 35694.824729924
field sum 7644723075
field sqrsum 6.3018255372352e+014
field min 1
field max 123650
statistic Basic.rack[10].node[5].app 	"End-to-End Delay"
field count 123650
field mean 0.00016115999765801
field stddev 0.00017161566347762
field sum 19.927433710413
field sqrsum 0.0068532075984886
field min 4e-007
field max 0.000641262657
statistic Basic.rack[10].node[5].app 	hops
field count 123650
field mean 3.489801860089
field stddev 1.1176881336179
field sum 431514
field sqrsum 1660364
field min 2
field max 5
statistic Basic.rack[10].node[6].app 	throughput
field count 123213
field mean 61607
field stddev 35568.673696105
field sum 7590783291
field sqrsum 6.2352465135042e+014
field min 1
field max 123213
statistic Basic.rack[10].node[6].app 	"End-to-End Delay"
field count 123213
field mean 0.00016027719723105
field stddev 0.0001713309021556
field sum 19.74823430243
field sqrsum 0.0067819909493133
field min 4e-007
field max 0.00063849446
statistic Basic.rack[10].node[6].app 	hops
field count 123213
field mean 3.4870184152646
field stddev 1.1217644152544
field sum 429646
field sqrsum 1653228
field min 2
field max 5
statistic Basic.rack[10].node[7].app 	throughput
field count 123464
field mean 61732.5
field stddev 35641.131154889
field sum 7621741380
field sqrsum 6.2734299240734e+014
field min 1
field max 123464
statistic Basic.rack[10].node[7].app 	"End-to-End Delay"
field count 123464
field mean 0.00016054164177714
field stddev 0.00017132866838134
field sum 19.821113260373
field sqrsum 0.0068061867919558
field min 4e-007
field max 0.000600910605
statistic Basic.rack[10].node[7].app 	hops
field count 123464
field mean 3.490847534504
field stddev 1.1174358235458
field sum 430994
field sqrsum 1658698
field min 2
field max 5
statistic Basic.rack[10].node[8].app 	throughput
field count 123242
field mean 61621.5
field stddev 35577.045275008
field sum 7594356903
field sqrsum 6.2396502041198e+014
field min 1
field max 123242
statistic Basic.rack[10].node[8].app 	"End-to-End Delay"
field count 123242
field mean 0.00016060922315216
field stddev 0.00017156567314621
field sum 19.793801879719
field sqrsum 0.0068066388900181
field min 4e-007
field max 0.000634718201
statistic Basic.rack[10].node[8].app 	hops
field count 123242
field mean 3.4871066681813
field stddev 1.1222237666008
field sum 429758
field sqrsum 1653820
field min 2
field max 5
statistic Basic.rack[10].node[9].app 	throughput
field count 124047
field mean 62024
field stddev 35809.428758359
field sum 7693891128
field sqrsum 6.3627197313372e+014
field min 1
field max 124047
statistic Basic.rack[10].node[9].app 	"End-to-End Delay"
field count 124047
field mean 0.00015968452744592
field stddev 0.00017109410534487
field sum 19.808386576084
field sqrsum 0.0067943153343272
field min 4e-007
field max 0.00062712357
statistic Basic.rack[10].node[9].app 	hops
field count 124047
field mean 3.4861947487646
field stddev 1.1206649004756
field sum 432452
field sqrsum 1663400
field min 2
field max 5
statistic Basic.rack[10].eps.queue[0] 	dropsum
field count 0
field mean nan
field stddev nan
field sum 0
field sqrsum 0
field min nan
field max nan
statistic Basic.rack[10].eps.queue[1] 	dropsum
field count 0
field mean nan
field stddev nan
field sum 0
field sqrsum 0
field min nan
field max nan
statistic Basic.rack[10].eps.queue[2] 	dropsum
field count 0
field mean nan
field stddev nan
field sum 0
field sqrsum 0
field min nan
field max nan
statistic Basic.rack[10].eps.queue[3] 	dropsum
field count 0
field mean nan
field stddev nan
field sum 0
field sqrsum 0
field min nan
field max nan
statistic Basic.rack[11].node[0].app 	throughput
field count 123278
field mean 61639.5
field stddev 35587.437579854
field sum 7598794281
field sqrsum 6.2451197384684e+014
field min 1
field max 123278
statistic Basic.rack[11].node[0].app 	"End-to-End Delay"
field count 123278
field mean 0.00016082491045445
field stddev 0.00017155574930843
field sum 19.826173311003
field sqrsum 0.0068167541781604
field min 4e-007
field max 0.000578568406
statistic Basic.rack[11].node[0].app 	hops
field count 123278
field mean 3.492593974594
field stddev 1.1199785234021
field sum 430560
field sqrsum 1658404
field min 2
field max 5
statistic Basic.rack[11].node[1].app 	throughput
field count 123645
field mean 61823
field stddev 35693.381354251
field sum 7644104835
field sqrsum 6.30106109584e+014
field min 1
field max 123645
statistic Basic.rack[11].node[1].app 	"End-to-End Delay"
field count 123645
field mean 0.00016050890292923
field stddev 0.00017142659254018
field sum 19.846123302684
field sqrsum 0.0068190151815438
field min 4e-007
field max 0.000595878543
statistic Basic.rack[11].node[1].app 	hops
field count 123645
field mean 3.4915928666748
field stddev 1.1196731109532
field sum 431718
field sqrsum 1662392
field min 2
field max 5
statistic Basic.rack[11].node[2].app 	throughput
field count 123574
field mean 61787.5
field stddev 35672.885419695
field sum 7635328525
field sqrsum 6.2902126987508e+014
field min 1
field max 123574
statistic Basic.rack[11].node[2].app 	"End-to-End Delay"
field count 123574
field mean 0.00015977955515346
field stddev 0.00017111006563879
field sum 19.744598748534
field sqrsum 0.0067728343850272
field min 4e-007
field max 0.000576090206
statistic Basic.rack[11].node[2].app 	hops
field count 123574
field mean 3.4876511240229
field stddev 1.1183466489872
field sum 430983
field sqrsum 1657671
field min 2
field max 5
[...]
field sum 368326
field sqrsum 1164728
field min 2
field max 4
statistic Basic.rack[13].node[2].app 	throughput
field count 123385
field mean 61693
field stddev 35618.325819256
field sum 7611990805
field sqrsum 6.2613952764688e+014
field min 1
field max 123385
statistic Basic.rack[13].node[2].app 	"End-to-End Delay"
field count 123385
field mean 0.00015440985707075
field stddev 0.00016394156846903
field sum 19.051860214675
field sqrsum 0.0062579667766892
field min 4e-007
field max 0.000541234732
statistic Basic.rack[13].node[2].app 	hops
field count 123385
field mean 2.9957612351582
field stddev 0.70990244330367
field sum 369632
field sqrsum 1169510
field min 2
field max 4
statistic Basic.rack[13].node[3].app 	throughput
field count 123240
field mean 61620.5
field stddev 35576.467924739
field sum 7594110420
field sqrsum 6.2393464347734e+014
field min 1
field max 123240
statistic Basic.rack[13].node[3].app 	"End-to-End Delay"
field count 123240
field mean 0.00015488000864088
field stddev 0.0001639961129497
field sum 19.087412264901
field sqrsum 0.0062707375985112
field min 4e-007
field max 0.000556683045
statistic Basic.rack[13].node[3].app 	hops
field count 123240
field mean 2.994888023369
field stddev 0.70860433505456
field sum 369090
field sqrsum 1167264
field min 2
field max 4
statistic Basic.rack[13].node[4].app 	throughput
field count 123138
field mean 61569.5
field stddev 35547.02306101
field sum 7581545091
field sqrsum 6.2238672679207e+014
field min 1
field max 123138
statistic Basic.rack[13].node[4].app 	"End-to-End Delay"
field count 123138
field mean 0.00015422595545446
field stddev 0.00016382988654878
field sum 18.991075702751
field sqrsum 0.0062339424094816
field min 4e-007
field max 0.000555777463
statistic Basic.rack[13].node[4].app 	hops
field count 123138
field mean 2.9966135555231
field stddev 0.70633163146318
field sum 368997
field sqrsum 1167175
field min 2
field max 4
statistic Basic.rack[13].node[5].app 	throughput
field count 123482
field mean 61741.5
field stddev 35646.327307312
field sum 7623963903
field sqrsum 6.2761741510146e+014
field min 1
field max 123482
statistic Basic.rack[13].node[5].app 	"End-to-End Delay"
field count 123482
field mean 0.00015470370854618
field stddev 0.00016392713931322
field sum 19.103123338699
field sqrsum 0.0062735186702003
field min 4e-007
field max 0.00055436298
statistic Basic.rack[13].node[5].app 	hops
field count 123482
field mean 2.9954163359842
field stddev 0.70805047408185
field sum 369880
field sqrsum 1169850
field min 2
field max 4
statistic Basic.rack[13].node[6].app 	throughput
field count 123109
field mean 61555
field stddev 35538.651482107
field sum 7577974495
field sqrsum 6.2194710072814e+014
field min 1
field max 123109
statistic Basic.rack[13].node[6].app 	"End-to-End Delay"
field count 123109
field mean 0.00015425901746376
field stddev 0.00016376393371139
field sum 18.990673380946
field sqrsum 0.0062310700244354
field min 4e-007
field max 0.000548636509
statistic Basic.rack[13].node[6].app 	hops
field count 123109
field mean 2.9950531642691
field stddev 0.70621010855644
field sum 368718
field sqrsum 1165728
field min 2
field max 4
statistic Basic.rack[13].node[7].app 	throughput
field count 123708
field mean 61854.5
field stddev 35711.567887731
field sum 7651896486
field sqrsum 6.3106975762555e+014
field min 1
field max 123708
statistic Basic.rack[13].node[7].app 	"End-to-End Delay"
field count 123708
field mean 0.0001543073964236
field stddev 0.00016403041324661
field sum 19.089059396771
field sqrsum 0.0062740406868475
field min 4e-007
field max 0.000545717278
statistic Basic.rack[13].node[7].app 	hops
field count 123708
field mean 2.9924661299188
field stddev 0.71055925559702
field sum 370192
field sqrsum 1170246
field min 2
field max 4
statistic Basic.rack[13].node[8].app 	throughput
field count 123096
field mean 61548.5
field stddev 35534.898705357
field sum 7576374156
field sqrsum 6.2175009419604e+014
field min 1
field max 123096
statistic Basic.rack[13].node[8].app 	"End-to-End Delay"
field count 123096
field mean 0.00015424321880977
field stddev 0.00016406903896131
field sum 18.986723262607
field sqrsum 0.0062421244765012
field min 4e-007
field max 0.000548642791
statistic Basic.rack[13].node[8].app 	hops
field count 123096
field mean 2.9944027425749
field stddev 0.70865402815404
field sum 368599
field sqrsum 1165551
field min 2
field max 4
statistic Basic.rack[13].node[9].app 	throughput
field count 123343
field mean 61672
field stddev 35606.201463603
field sum 7606809496
field sqrsum 6.2550033804658e+014
field min 1
field max 123343
statistic Basic.rack[13].node[9].app 	"End-to-End Delay"
field count 123343
field mean 0.00015515794052199
field stddev 0.00016409142066219
field sum 19.137645857804
field sqrsum 0.0062904637109957
field min 4e-007
field max 0.00053191839
statistic Basic.rack[13].node[9].app 	hops
field count 123343
field mean 2.9961246280697
field stddev 0.70807582251846
field sum 369551
field sqrsum 1169061
field min 2
field max 4
statistic Basic.rack[13].eps.queue[0] 	dropsum
field count 31866
field mean 15933.5
field stddev 9199.0661754332
field sum 507736911
field sqrsum 10786532182921
field min 1
field max 31866
statistic Basic.rack[13].eps.queue[1] 	dropsum
field count 0
field mean nan
field stddev nan
field sum 0
field sqrsum 0
field min nan
field max nan
statistic Basic.rack[13].eps.queue[2] 	dropsum
field count 0
field mean nan
field stddev nan
field sum 0
field sqrsum 0
field min nan
field max nan
statistic Basic.rack[13].eps.queue[3] 	dropsum
field count 0
field mean nan
field stddev nan
field sum 0
field sqrsum 0
field min nan
field max nan
statistic Basic.rack[14].node[0].app 	throughput
field count 123398
field mean 61699.5
field stddev 35622.078596006
field sum 7613594901
field sqrsum 6.263374602607e+014
field min 1
field max 123398
statistic Basic.rack[14].node[0].app 	"End-to-End Delay"
field count 123398
field mean 0.000160048565784
field stddev 0.00017137737057249
field sum 19.749672920614
field sqrsum 0.0067851017830497
field min 4e-007
field max 0.000573626136
statistic Basic.rack[14].node[0].app 	hops
field count 123398
field mean 3.489878280037
field stddev 1.1205268524994
field sum 430644
field sqrsum 1657830
field min 2
field max 5
statistic Basic.rack[14].node[1].app 	throughput
field count 123880
field mean 61940.5
field stddev 35761.220010881
field sum 7673189140
field sqrsum 6.3370567150518e+014
field min 1
field max 123880
statistic Basic.rack[14].node[1].app 	"End-to-End Delay"
field count 123880
field mean 0.00016065230206753
field stddev 0.00017166694003684
field sum 19.901607180126
field sqrsum 0.0068478959435963
field min 4e-007
field max 0.00058614971
statistic Basic.rack[14].node[1].app 	hops
field count 123880
field mean 3.4892234420407
field stddev 1.1209502498244
field sum 432245
field sqrsum 1663857
field min 2
field max 5
statistic Basic.rack[14].node[2].app 	throughput
field count 123430
field mean 61715.5
field stddev 35631.316200313
field sum 7617544165
field sqrsum 6.2682485670536e+014
field min 1
field max 123430
statistic Basic.rack[14].node[2].app 	"End-to-End Delay"
field count 123430
field mean 0.00016026314702703
field stddev 0.00017148193377201
field sum 19.781280237546
field sqrsum 0.0067997700141446
field min 4e-007
field max 0.000583478226
statistic Basic.rack[14].node[2].app 	hops
field count 123430
field mean 3.4890383213157
field stddev 1.1196430695407
field sum 430652
field sqrsum 1657292
field min 2
field max 5
statistic Basic.rack[14].node[3].app 	throughput
field count 123278
field mean 61639.5
field stddev 35587.437579854
field sum 7598794281
field sqrsum 6.2451197384684e+014
field min 1
field max 123278
statistic Basic.rack[14].node[3].app 	"End-to-End Delay"
field count 123278
field mean 0.0001601235939764
field stddev 0.00017157401429409
field sum 19.739716418223
field sqrsum 0.0067897785767621
field min 4e-007
field max 0.000594223917
statistic Basic.rack[14].node[3].app 	hops
field count 123278
field mean 3.4840685280423
field stddev 1.1197230841922
field sum 429509
field sqrsum 1651001
field min 2
field max 5
statistic Basic.rack[14].node[4].app 	throughput
field count 123306
field mean 61653.5
field stddev 35595.520483623
field sum 7602246471
field sqrsum 6.2493760298424e+014
field min 1
field max 123306
statistic Basic.rack[14].node[4].app 	"End-to-End Delay"
field count 123306
field mean 0.00016049019330337
field stddev 0.00017147615291687
field sum 19.789403775465
field sqrsum 0.0068016742143016
field min 4e-007
field max 0.000571127106
statistic Basic.rack[14].node[4].app 	hops
field count 123306
field mean 3.4856454673739
field stddev 1.122102637968
field sum 429801
field sqrsum 1653389
field min 2
field max 5
statistic Basic.rack[14].node[5].app 	throughput
field count 123565
field mean 61783
field stddev 35670.287343483
field sum 7634216395
field sqrsum 6.2888384397092e+014
field min 1
field max 123565
statistic Basic.rack[14].node[5].app 	"End-to-End Delay"
field count 123565
field mean 0.00016030657303419
field stddev 0.00017144494364319
field sum 19.808281696969
field sqrsum 0.0068073599666845
field min 4e-007
field max 0.00057085211
statistic Basic.rack[14].node[5].app 	hops
field count 123565
field mean 3.4900740500951
field stddev 1.1190833639757
field sum 431251
field sqrsum 1659843
field min 2
field max 5
statistic Basic.rack[14].node[6].app 	throughput
field count 122946
field mean 61473.5
field stddev 35491.597435168
field sum 7557920931
field sqrsum 6.1947995049546e+014
field min 1
field max 122946
statistic Basic.rack[14].node[6].app 	"End-to-End Delay"
field count 122946
field mean 0.00016060140523927
field stddev 0.00017169039076973
field sum 19.745300368547
field sqrsum 0.0067952453233621
field min 4e-007
field max 0.000600930751
statistic Basic.rack[14].node[6].app 	hops
field count 122946
field mean 3.4886454215672
field stddev 1.1195439868667
field sum 428915
field sqrsum 1650429
field min 2
field max 5
statistic Basic.rack[14].node[7].app 	throughput
field count 123261
field mean 61631
field stddev 35582.530102566
field sum 7596698691
field sqrsum 6.2425365046713e+014
field min 1
field max 123261
statistic Basic.rack[14].node[7].app 	"End-to-End Delay"
field count 123261
field mean 0.0001615232688126
field stddev 0.00017190771402458
field sum 19.90951963711
field sqrsum 0.0068584625237937
field min 4e-007
field max 0.000571102142
statistic Basic.rack[14].node[7].app 	hops
field count 123261
field mean 3.4942763728998
field stddev 1.1194995954986
field sum 430708
field sqrsum 1659492
field min 2
field max 5
statistic Basic.rack[14].node[8].app 	throughput
field count 123436
field mean 61718.5
field stddev 35633.04825112
field sum 7618284766
field sqrsum 6.2691627167891e+014
field min 1
field max 123436
statistic Basic.rack[14].node[8].app 	"End-to-End Delay"
field count 123436
field mean 0.00016013321509368
field stddev 0.00017154649775707
field sum 19.766203538303
field sqrsum 0.0067976956999768
field min 4e-007
field max 0.000566000479
statistic Basic.rack[14].node[8].app 	hops
field count 123436
field mean 3.4866894585048
field stddev 1.1193570059545
field sum 430383
field sqrsum 1655271
field min 2
field max 5
statistic Basic.rack[14].node[9].app 	throughput
field count 123236
field mean 61618.5
field stddev 35575.313224201
field sum 7593617466
field sqrsum 6.2387389256581e+014
field min 1
field max 123236
statistic Basic.rack[14].node[9].app 	"End-to-End Delay"
field count 123236
field mean 0.0001604339541759
field stddev 0.00017146170355075
field sum 19.771238776821
field sqrsum 0.0067949780496272
field min 4e-007
field max 0.000562400389
statistic Basic.rack[14].node[9].app 	hops
field count 123236
field mean 3.4895809666007
field stddev 1.1179972340038
field sum 430042
field sqrsum 1654700
field min 2
field max 5
statistic Basic.rack[14].eps.queue[0] 	dropsum
field count 0
field mean nan
field stddev nan
field sum 0
field sqrsum 0
field min nan
field max nan
statistic Basic.rack[14].eps.queue[1] 	dropsum
field count 0
field mean nan
field stddev nan
field sum 0
field sqrsum 0
field min nan
field max nan
statistic Basic.rack[14].eps.queue[2] 	dropsum
field count 0
field mean nan
field stddev nan
field sum 0
field sqrsum 0
field min nan
field max nan
statistic Basic.rack[14].eps.queue[3] 	dropsum
field count 0
field mean nan
field stddev nan
field sum 0
field sqrsum 0
field min nan
field max nan
statistic Basic.rack[15].node[0].app 	throughput
field count 123077
field mean 61539
field stddev 35529.4138778
field sum 7574035503
field sqrsum 6.2146223641366e+014
field min 1
field max 123077
statistic Basic.rack[15].node[0].app 	"End-to-End Delay"
field count 123077
field mean 0.00015891430807243
field stddev 0.00017086415574774
field sum 19.558696294631
field sqrsum 0.0067013063204836
field min 4e-007
field max 0.00060878528
statistic Basic.rack[15].node[0].app 	hops
field count 123077
field mean 3.4831284480447
field stddev 1.1207530626603
field sum 428693
field sqrsum 1647787
field min 2
field max 5
statistic Basic.rack[15].node[1].app 	throughput
field count 122959
field mean 61480
field stddev 35495.350211917
field sum 7559519320
field sqrsum 6.1967647721836e+014
field min 1
field max 122959
statistic Basic.rack[15].node[1].app 	"End-to-End Delay"
field count 122959
field mean 0.00015869346645394
field stddev 0.00017077609513065
field sum 19.51278994171
field sqrsum 0.0066825577522743
field min 4e-007
field max 0.000567885948
statistic Basic.rack[15].node[1].app 	hops
field count 122959
field mean 3.4824860319293
field stddev 1.11906839471
field sum 428203
field sqrsum 1645193
field min 2
field max 5
statistic Basic.rack[15].node[2].app 	throughput
field count 122263
field mean 61132
field stddev 35294.432318238
field sum 7474181716
field sqrsum 6.0921307748944e+014
field min 1
field max 122263
statistic Basic.rack[15].node[2].app 	"End-to-End Delay"
field count 122263
field mean 0.00016007101725788
field stddev 0.00017116589929123
field sum 19.570762783
field sqrsum 0.0067147152614196
field min 4e-007
field max 0.000574397701
statistic Basic.rack[15].node[2].app 	hops
field count 122263
field mean 3.4872856056207
field stddev 1.1194102614827
field sum 426366
field sqrsum 1640064
field min 2
field max 5
statistic Basic.rack[15].node[3].app 	throughput
field count 123524
field mean 61762.5
field stddev 35658.451662965
field sum 7629151050
field sqrsum 6.2825804591715e+014
field min 1
field max 123524
statistic Basic.rack[15].node[3].app 	"End-to-End Delay"
field count 123524
field mean 0.00015940703745964
field stddev 0.00017082776087197
field sum 19.690594895164
field sqrsum 0.0067434828866449
field min 4e-007
field max 0.000598237664
statistic Basic.rack[15].node[3].app 	hops
field count 123524
field mean 3.4881966257569
field stddev 1.1202187763765
field sum 430876
field sqrsum 1657988
field min 2
field max 5
statistic Basic.rack[15].node[4].app 	throughput
field count 123468
field mean 61734.5
field stddev 35642.285855427
field sum 7622235246
field sqrsum 6.2740396831383e+014
field min 1
field max 123468
statistic Basic.rack[15].node[4].app 	"End-to-End Delay"
field count 123468
field mean 0.00015993003331096
field stddev 0.00017120847353973
field sum 19.746241352838
field sqrsum 0.0067771238944168
field min 4e-007
field max 0.000583651775
statistic Basic.rack[15].node[4].app 	hops
field count 123468
field mean 3.4902727832313
field stddev 1.1198203280276
field sum 430937
field sqrsum 1658915
field min 2
field max 5
statistic Basic.rack[15].node[5].app 	throughput
field count 123176
field mean 61588.5
field stddev 35557.992716125
field sum 7586225076
field sqrsum 6.2296310204928e+014
field min 1
field max 123176
statistic Basic.rack[15].node[5].app 	"End-to-End Delay"
field count 123176
field mean 0.00016055058856503
field stddev 0.00017117808425564
field sum 19.775979297086
field sqrsum 0.0067843111476094
field min 4e-007
field max 0.000580987647
statistic Basic.rack[15].node[5].app 	hops
field count 123176
field mean 3.4926284341105
field stddev 1.1193640610192
field sum 430208
field sqrsum 1656892
field min 2
field max 5
statistic Basic.rack[15].node[6].app 	throughput
field count 123284
field mean 61642.5
field stddev 35589.169630662
field sum 7599533970
field sqrsum 6.2460316381631e+014
field min 1
field max 123284
statistic Basic.rack[15].node[6].app 	"End-to-End Delay"
field count 123284
field mean 0.00015987801748665
field stddev 0.00017128619681927
field sum 19.710401507824
field sqrsum 0.0067682550731218
field min 4e-007
field max 0.000599991314
statistic Basic.rack[15].node[6].app 	hops
field count 123284
field mean 3.4873787352779
field stddev 1.1182937312342
field sum 429938
field sqrsum 1653532
field min 2
field max 5
statistic Basic.rack[15].node[7].app 	throughput
field count 123344
field mean 61672.5
field stddev 35606.490138737
field sum 7606932840
field sqrsum 6.2551555178892e+014
field min 1
field max 123344
statistic Basic.rack[15].node[7].app 	"End-to-End Delay"
field count 123344
field mean 0.00016034088562002
field stddev 0.00017122804326195
field sum 19.777086195916
field sqrsum 0.0067873742116328
field min 4e-007
field max 0.000599235587
statistic Basic.rack[15].node[7].app 	hops
field count 123344
field mean 3.4911710338565
field stddev 1.1213200381782
field sum 430615
field sqrsum 1658437
field min 2
field max 5
statistic Basic.rack[15].node[8].app 	throughput
field count 123724
field mean 61862.5
field stddev 35716.186689884
field sum 7653875950
field sqrsum 6.3131464998385e+014
field min 1
field max 123724
statistic Basic.rack[15].node[8].app 	"End-to-End Delay"
field count 123724
field mean 0.00015973886124267
field stddev 0.00017076032695241
field sum 19.763530868388
field sqrsum 0.0067646539156764
field min 4e-007
field max 0.000576247512
statistic Basic.rack[15].node[8].app 	hops
field count 123724
field mean 3.4898645371957
field stddev 1.1185491007536
field sum 431780
field sqrsum 1661650
field min 2
field max 5
statistic Basic.rack[15].node[9].app 	throughput
field count 123660
field mean 61830.5
field stddev 35697.71148127
field sum 7645959630
field sqrsum 6.3033546055041e+014
field min 1
field max 123660
statistic Basic.rack[15].node[9].app 	"End-to-End Delay"
field count 123660
field mean 0.00015966438514669
field stddev 0.00017107923461889
field sum 19.74409786724
field sqrsum 0.0067716937828137
field min 4e-007
field max 0.000612138175
statistic Basic.rack[15].node[9].app 	hops
field count 123660
field mean 3.4899239851205
field stddev 1.1180003376815
field sum 431564
field sqrsum 1660690
field min 2
field max 5
statistic Basic.rack[15].eps.queue[0] 	dropsum
field count 0
field mean nan
field stddev nan
field sum 0
field sqrsum 0
field min nan
field max nan
statistic Basic.rack[15].eps.queue[1] 	dropsum
field count 0
field mean nan
field stddev nan
field sum 0
field sqrsum 0
field min nan
field max nan
statistic Basic.rack[15].eps.queue[2] 	dropsum
field count 0
field mean nan
field stddev nan
field sum 0
field sqrsum 0
field min nan
field max nan
statistic Basic.rack[15].eps.queue[3] 	dropsum
field count 0
field mean nan
field stddev nan
field sum 0
field sqrsum 0
field min nan
field max nan
