version 2
run Basic-68-20180510-19:42:26-24200
attr configname Basic
attr datetime 20180510-19:42:26
attr experiment Basic
attr inifile omnetpp.ini
attr iterationvars "$0=exponential(0.05 ms), $1=5, $2=2"
attr iterationvarsf exponential(0.05_ms),5,2-
attr measurement "$0=exponential(0.05 ms), $1=5, $2=2"
attr network Networks.Basic
attr processid 24200
attr repetition 0
attr replication #0
attr resultdir results
attr runnumber 68
attr seedset 68
param **.frameCapacity 50
param **.packetLength "1024 bytes"
param **.pattern 5
param **.sendIaTime "exponential(0.05 ms)"
param **.tp 2

statistic Basic.rack[0].node[0].app 	throughput
field count 154040
field mean 77020.5
field stddev 44467.662070318
field sum 11864237820
field sqrsum 1.2183820839411e+015
field min 1
field max 154040
statistic Basic.rack[0].node[0].app 	"End-to-End Delay"
field count 154040
field mean 0.00039789603818847
field stddev 0.00038084523475908
field sum 61.291905722552
field sqrsum 0.046730099437805
field min 8.992e-006
field max 0.001392685128
statistic Basic.rack[0].node[0].app 	hops
field count 154040
field mean 3.9696377564269
field stddev 1.1998832375966
field sum 611483
field sqrsum 2649139
field min 3
field max 6
statistic Basic.rack[0].node[1].app 	throughput
field count 153772
field mean 76886.5
field stddev 44390.297134246
field sum 11822990878
field sqrsum 1.2120339098582e+015
field min 1
field max 153772
statistic Basic.rack[0].node[1].app 	"End-to-End Delay"
field count 153772
field mean 0.00039786398898805
field stddev 0.00038006238736435
field sum 61.180341314671
field sqrsum 0.046553278600837
field min 8.992e-006
field max 0.001399146401
statistic Basic.rack[0].node[1].app 	hops
field count 153772
field mean 3.9677639622298
field stddev 1.1992274068117
field sum 610131
field sqrsum 2642001
field min 3
field max 6
statistic Basic.rack[0].node[2].app 	throughput
field count 153725
field mean 76863
field stddev 44376.72940292
field sum 11815764675
field sqrsum 1.2109228883645e+015
field min 1
field max 153725
statistic Basic.rack[0].node[2].app 	"End-to-End Delay"
field count 153725
field mean 0.00039618952868976
field stddev 0.00037891283210237
field sum 60.904235297833
field sqrsum 0.046200533483086
field min 8.992e-006
field max 0.001405507353
statistic Basic.rack[0].node[2].app 	hops
field count 153725
field mean 3.963285087006
field stddev 1.1972653137136
field sum 609256
field sqrsum 2635010
field min 3
field max 6
statistic Basic.rack[0].node[3].app 	throughput
field count 153778
field mean 76889.5
field stddev 44392.029185054
field sum 11823913531
field sqrsum 1.2121757912846e+015
field min 1
field max 153778
statistic Basic.rack[0].node[3].app 	"End-to-End Delay"
field count 153778
field mean 0.00040000169962316
field stddev 0.00038136581041663
field sum 61.51146136465
field sqrsum 0.046969997727251
field min 8.992e-006
field max 0.001401960567
statistic Basic.rack[0].node[3].app 	hops
field count 153778
field mean 3.9712767756116
field stddev 1.2014548232376
field sum 610695
field sqrsum 2647215
field min 3
field max 6
statistic Basic.rack[0].node[4].app 	throughput
field count 153566
field mean 76783.5
field stddev 44330.830056519
field sum 11791334961
field sqrsum 1.2071693601923e+015
field min 1
field max 153566
statistic Basic.rack[0].node[4].app 	"End-to-End Delay"
field count 153566
field mean 0.00039733307190769
field stddev 0.00037976240511113
field sum 61.016850520577
field sqrsum 0.046391077767499
field min 8.992e-006
field max 0.001392186217
statistic Basic.rack[0].node[4].app 	hops
field count 153566
field mean 3.9659169347382
field stddev 1.1984198488246
field sum 609030
field sqrsum 2635914
field min 3
field max 6
statistic Basic.rack[0].node[5].app 	throughput
field count 154322
field mean 77161.5
field stddev 44549.068458274
field sum 11907717003
field sqrsum 1.2250857714636e+015
field min 1
field max 154322
statistic Basic.rack[0].node[5].app 	"End-to-End Delay"
field count 154322
field mean 0.00039561348696077
field stddev 0.00037885746474243
field sum 61.05186453476
field sqrsum 0.046303093803204
field min 8.992e-006
field max 0.001384238214
statistic Basic.rack[0].node[5].app 	hops
field count 154322
field mean 3.9651054289084
field stddev 1.1967633376492
field sum 611903
field sqrsum 2647285
field min 3
field max 6
statistic Basic.rack[0].node[6].app 	throughput
field count 152833
field mean 76417
field stddev 44119.23118286
field sum 11679039361
field sqrsum 1.1899656414529e+015
field min 1
field max 152833
statistic Basic.rack[0].node[6].app 	"End-to-End Delay"
field count 152833
field mean 0.00039792782786783
field stddev 0.00038008351347694
field sum 60.816503716524
field sqrsum 0.046279221372457
field min 8.992e-006
field max 0.001386515916
statistic Basic.rack[0].node[6].app 	hops
field count 152833
field mean 3.967297638599
field stddev 1.1991940341927
field sum 606334
field sqrsum 2625290
field min 3
field max 6
statistic Basic.rack[0].node[7].app 	throughput
field count 153746
field mean 76873.5
field stddev 44382.791580747
field sum 11818993131
field sqrsum 1.2114192182769e+015
field min 1
field max 153746
statistic Basic.rack[0].node[7].app 	"End-to-End Delay"
field count 153746
field mean 0.00039834540693687
field stddev 0.00038024174861923
field sum 61.244012934916
field sqrsum 0.046625305647744
field min 8.992e-006
field max 0.001386188622
statistic Basic.rack[0].node[7].app 	hops
field count 153746
field mean 3.97296840243
field stddev 1.1997204371538
field sum 610828
field sqrsum 2648090
field min 3
field max 6
statistic Basic.rack[0].node[8].app 	throughput
field count 154166
field mean 77083.5
field stddev 44504.035137277
field sum 11883654861
field sqrsum 1.2213743180856e+015
field min 1
field max 154166
statistic Basic.rack[0].node[8].app 	"End-to-End Delay"
field count 154166
field mean 0.00039721849546956
field stddev 0.00038005123349485
field sum 61.23758657256
field sqrsum 0.04659213120212
field min 8.992e-006
field max 0.001392908972
statistic Basic.rack[0].node[8].app 	hops
field count 154166
field mean 3.968624729188
field stddev 1.1988471034918
field sum 611827
field sqrsum 2649683
field min 3
field max 6
statistic Basic.rack[0].node[9].app 	throughput
field count 153706
field mean 76853.5
field stddev 44371.244575363
field sum 11812844071
field sqrsum 1.2104739447994e+015
field min 1
field max 153706
statistic Basic.rack[0].node[9].app 	"End-to-End Delay"
field count 153706
field mean 0.00039905270782441
field stddev 0.00038044017722865
field sum 61.336795508859
field sqrsum 0.046723065773454
field min 8.992e-006
field max 0.001372865733
statistic Basic.rack[0].node[9].app 	hops
field count 153706
field mean 3.971998490625
field stddev 1.2000875061717
field sum 610520
field sqrsum 2646352
field min 3
field max 6
statistic Basic.rack[0].eps.queue[0] 	dropsum
field count 186667
field mean 93334
field stddev 53886.265686784
field sum 17422377778
field sqrsum 2.1681278025832e+015
field min 1
field max 186667
statistic Basic.rack[0].eps.queue[1] 	dropsum
field count 74032
field mean 37016.5
field stddev 21371.341901403
field sum 2740405528
field sqrsum 1.3525271483444e+014
field min 1
field max 74032
statistic Basic.rack[0].eps.queue[2] 	dropsum
field count 0
field mean nan
field stddev nan
field sum 0
field sqrsum 0
field min nan
field max nan
statistic Basic.rack[0].eps.queue[3] 	dropsum
field count 0
field mean nan
field stddev nan
field sum 0
field sqrsum 0
field min nan
field max nan
statistic Basic.rack[1].node[0].app 	throughput
field count 173195
field mean 86598
field stddev 49997.234273508
field sum 14998340610
field sqrsum 1.7317634007462e+015
field min 1
field max 173195
statistic Basic.rack[1].node[0].app 	"End-to-End Delay"
field count 173195
field mean 0.00038383555755463
field stddev 0.00038452278808953
field sum 66.478399390675
field sqrsum 0.05112485290263
field min 8.992e-006
field max 0.001406582476
statistic Basic.rack[1].node[0].app 	hops
field count 173195
field mean 4.0444874274662
field stddev 1.2202703831165
field sum 700485
field sqrsum 3090999
field min 3
field max 6
statistic Basic.rack[1].node[1].app 	throughput
field count 173586
field mean 86793.5
field stddev 50110.106251135
field sum 15066136491
field sqrsum 1.74351860133e+015
field min 1
field max 173586
statistic Basic.rack[1].node[1].app 	"End-to-End Delay"
field count 173586
field mean 0.00038117711006771
field stddev 0.0003836200273604
field sum 66.167009828214
field sqrsum 0.05076686901131
field min 8.992e-006
field max 0.001395633251
statistic Basic.rack[1].node[1].app 	hops
field count 173586
field mean 4.0367771594483
field stddev 1.2186140091106
field sum 700728
field sqrsum 3086460
field min 3
field max 6
statistic Basic.rack[1].node[2].app 	throughput
field count 172023
field mean 86012
field stddev 49658.907015761
field sum 14796042276
field sqrsum 1.6968446523103e+015
field min 1
field max 172023
statistic Basic.rack[1].node[2].app 	"End-to-End Delay"
field count 172023
field mean 0.00038085703375343
field stddev 0.00038320893728496
field sum 65.516169517367
field sqrsum 0.050213568079035
field min 8.992e-006
field max 0.001371026569
statistic Basic.rack[1].node[2].app 	hops
field count 172023
field mean 4.03911686228
field stddev 1.2175775791628
field sum 694821
field sqrsum 3061485
field min 3
field max 6
statistic Basic.rack[1].node[3].app 	throughput
field count 173181
field mean 86591
field stddev 49993.192821623
field sum 14995915971
field sqrsum 1.7313434811545e+015
field min 1
field max 173181
statistic Basic.rack[1].node[3].app 	"End-to-End Delay"
field count 173181
field mean 0.00038401888703476
field stddev 0.00038513538817493
field sum 66.504774875566
field sqrsum 0.051226752128177
field min 8.992e-006
field max 0.001380017604
statistic Basic.rack[1].node[3].app 	hops
field count 173181
field mean 4.0457036279961
field stddev 1.22061075273
field sum 700639
field sqrsum 3092597
field min 3
field max 6
statistic Basic.rack[1].node[4].app 	throughput
field count 172877
field mean 86439
field stddev 49905.435580706
field sum 14943315003
field sqrsum 1.7222419596208e+015
field min 1
field max 172877
statistic Basic.rack[1].node[4].app 	"End-to-End Delay"
field count 172877
field mean 0.00038180380688628
field stddev 0.00038425947012355
field sum 66.005096723079
field sqrsum 0.050727061826238
field min 8.992e-006
field max 0.001391745511
statistic Basic.rack[1].node[4].app 	hops
field count 172877
field mean 4.0362859142627
field stddev 1.2192761073825
field sum 697781
field sqrsum 3073447
field min 3
field max 6
statistic Basic.rack[1].node[5].app 	throughput
field count 173019
field mean 86510
field stddev 49946.427449819
field sum 14967873690
field sqrsum 1.726489347938e+015
field min 1
field max 173019
statistic Basic.rack[1].node[5].app 	"End-to-End Delay"
field count 173019
field mean 0.00038268589188573
field stddev 0.00038415666666531
field sum 66.211930328177
field sqrsum 0.050871735591324
field min 8.992e-006
field max 0.001396892087
statistic Basic.rack[1].node[5].app 	hops
field count 173019
field mean 4.0396257058473
field stddev 1.2195696053584
field sum 698932
field sqrsum 3080762
field min 3
field max 6
statistic Basic.rack[1].node[6].app 	throughput
field count 173371
field mean 86686
field stddev 50048.041097196
field sum 15028838506
field sqrsum 1.737048183362e+015
field min 1
field max 173371
statistic Basic.rack[1].node[6].app 	"End-to-End Delay"
field count 173371
field mean 0.00038495121304047
field stddev 0.00038570804710628
field sum 66.739376756039
field sqrsum 0.051483779883154
field min 8.992e-006
field max 0.001374028901
statistic Basic.rack[1].node[6].app 	hops
field count 173371
field mean 4.0512946225147
field stddev 1.221372508364
field sum 702377
field sqrsum 3104161
field min 3
field max 6
statistic Basic.rack[1].node[7].app 	throughput
field count 173123
field mean 86562
field stddev 49976.449663817
field sum 14985873126
field sqrsum 1.7296045374194e+015
field min 1
field max 173123
statistic Basic.rack[1].node[7].app 	"End-to-End Delay"
field count 173123
field mean 0.00038152870021839
field stddev 0.00038438326793463
field sum 66.051393167908
field sqrsum 0.050779363667142
field min 8.992e-006
field max 0.001367277949
statistic Basic.rack[1].node[7].app 	hops
field count 173123
field mean 4.0364769556905
field stddev 1.2191139748626
field sum 698807
field sqrsum 3078019
field min 3
field max 6
statistic Basic.rack[1].node[8].app 	throughput
field count 172339
field mean 86170
field stddev 49750.128358293
field sum 14850451630
field sqrsum 1.7062129391256e+015
field min 1
field max 172339
statistic Basic.rack[1].node[8].app 	"End-to-End Delay"
field count 172339
field mean 0.00038423475055541
field stddev 0.00038576753573816
field sum 66.218632675969
field sqrsum 0.051090253576614
field min 8.992e-006
field max 0.001392869758
statistic Basic.rack[1].node[8].app 	hops
field count 172339
field mean 4.0428689965707
field stddev 1.2215766202751
field sum 696744
field sqrsum 3074016
field min 3
field max 6
statistic Basic.rack[1].node[9].app 	throughput
field count 172601
field mean 86301
field stddev 49825.761243558
field sum 14895638901
field sqrsum 1.7140064118473e+015
field min 1
field max 172601
statistic Basic.rack[1].node[9].app 	"End-to-End Delay"
field count 172601
field mean 0.00038253122948407
field stddev 0.00038382105188557
field sum 66.02527274018
field sqrsum 0.050683919095978
field min 8.992e-006
field max 0.001371281887
statistic Basic.rack[1].node[9].app 	hops
field count 172601
field mean 4.0417494684272
field stddev 1.21905770966
field sum 697610
field sqrsum 3076066
field min 3
field max 6
statistic Basic.rack[1].eps.queue[0] 	dropsum
field count 278508
field mean 139254.5
field stddev 80398.47872317
field sum 38783492286
field sqrsum 7.201021507557e+015
field min 1
field max 278508
statistic Basic.rack[1].eps.queue[1] 	dropsum
field count 0
field mean nan
field stddev nan
field sum 0
field sqrsum 0
field min nan
field max nan
statistic Basic.rack[1].eps.queue[2] 	dropsum
field count 0
field mean nan
field stddev nan
field sum 0
field sqrsum 0
field min nan
field max nan
statistic Basic.rack[1].eps.queue[3] 	dropsum
field count 0
field mean nan
field stddev nan
field sum 0
field sqrsum 0
field min nan
field max nan
statistic Basic.rack[2].node[0].app 	throughput
field count 185353
field mean 92677
field stddev 53506.946559925
field sum 17177959981
field sqrsum 2.1226633368922e+015
field min 1
field max 185353
statistic Basic.rack[2].node[0].app 	"End-to-End Delay"
field count 185353
field mean 8.9141033363748e-005
field stddev 0.00015689997650172
field sum 16.522557957071
field sqrsum 0.0060357597720846
field min 8.496e-007
field max 0.000419229056
statistic Basic.rack[2].node[0].app 	hops
field count 185353
field mean 4.1905768992139
field stddev 0.83342200835609
field sum 776736
field sqrsum 3383716
field min 3
field max 5
statistic Basic.rack[2].node[1].app 	throughput
field count 185136
field mean 92568.5
field stddev 53444.304055718
field sum 17137761816
field sqrsum 2.1152168269653e+015
field min 1
field max 185136
statistic Basic.rack[2].node[1].app 	"End-to-End Delay"
field count 185136
field mean 8.8924274870596e-005
field stddev 0.00015681122066301
field sum 16.463084552443
field sqrsum 0.0060163928746918
field min 8.496e-007
field max 0.000419182261
statistic Basic.rack[2].node[1].app 	hops
field count 185136
field mean 4.1909245095497
field stddev 0.83236835126984
field sum 775891
field sqrsum 3379969
field min 3
field max 5
statistic Basic.rack[2].node[2].app 	throughput
field count 185437
field mean 92719
field stddev 53531.195271231
field sum 17193533203
field sqrsum 2.1255505422209e+015
field min 1
field max 185437
statistic Basic.rack[2].node[2].app 	"End-to-End Delay"
field count 185437
field mean 8.8650100009566e-005
field stddev 0.0001564829854992
field sum 16.439008595474
field sqrsum 0.0059980771341258
field min 8.496e-007
field max 0.000419178523
statistic Basic.rack[2].node[2].app 	hops
field count 185437
field mean 4.1857342385824
field stddev 0.83449069102285
field sum 776190
field sqrsum 3378058
field min 3
field max 5
statistic Basic.rack[2].node[3].app 	throughput
field count 185409
field mean 92705
field stddev 53523.112367462
field sum 17188341345
field sqrsum 2.1245878497372e+015
field min 1
field max 185409
statistic Basic.rack[2].node[3].app 	"End-to-End Delay"
field count 185409
field mean 8.8719381707975e-005
field stddev 0.00015654945840267
field sum 16.449371843094
field sqrsum 0.0060033078457792
field min 8.496e-007
field max 0.000419266418
statistic Basic.rack[2].node[3].app 	hops
field count 185409
field mean 4.1905301252906
field stddev 0.83337144485752
field sum 776962
field sqrsum 3384650
field min 3
field max 5
statistic Basic.rack[2].node[4].app 	throughput
field count 184594
field mean 92297.5
field stddev 53287.842132767
field sum 17037564715
field sqrsum 2.096693826522e+015
field min 1
field max 184594
statistic Basic.rack[2].node[4].app 	"End-to-End Delay"
field count 184594
field mean 8.933837137323e-005
field stddev 0.00015703955579185
field sum 16.49132732527
field sqrsum 0.0060256342116455
field min 8.496e-007
field max 0.000419358692
statistic Basic.rack[2].node[4].app 	hops
field count 184594
field mean 4.1898761606553
field stddev 0.83377285674712
field sum 773426
field sqrsum 3368884
field min 3
field max 5
statistic Basic.rack[2].node[5].app 	throughput
field count 184965
field mean 92483
field stddev 53394.940607702
field sum 17106118095
field sqrsum 2.1093611243338e+015
field min 1
field max 184965
statistic Basic.rack[2].node[5].app 	"End-to-End Delay"
field count 184965
field mean 8.9183760417447e-005
field stddev 0.00015688964921698
field sum 16.495874245613
field sqrsum 0.0060239349553779
field min 8.496e-007
field max 0.000419214134
statistic Basic.rack[2].node[5].app 	hops
field count 184965
field mean 4.192241775471
field stddev 0.83258380633733
field sum 775418
field sqrsum 3378956
field min 3
field max 5
statistic Basic.rack[2].node[6].app 	throughput
field count 183782
field mean 91891.5
field stddev 53053.437923475
field sum 16888003653
field sqrsum 2.0691463542383e+015
field min 1
field max 183782
statistic Basic.rack[2].node[6].app 	"End-to-End Delay"
field count 183782
field mean 8.8997308342113e-005
field stddev 0.00015684000811502
field sum 16.35610332173
field sqrsum 0.0059764390547713
field min 8.496e-007
field max 0.000419199909
statistic Basic.rack[2].node[6].app 	hops
field count 183782
field mean 4.1865525459512
field stddev 0.83374247493097
field sum 769413
field sqrsum 3348939
field min 3
field max 5
statistic Basic.rack[2].node[7].app 	throughput
field count 184862
field mean 92431.5
field stddev 53365.207068838
field sum 17087071953
field sqrsum 2.105839225941e+015
field min 1
field max 184862
statistic Basic.rack[2].node[7].app 	"End-to-End Delay"
field count 184862
field mean 8.9328084257954e-005
field stddev 0.00015703980173953
field sum 16.513368312094
field sqrsum 0.0060340569836807
field min 8.496e-007
field max 0.000419168948
statistic Basic.rack[2].node[7].app 	hops
field count 184862
field mean 4.1934632320325
field stddev 0.83200572187819
field sum 775212
field sqrsum 3378790
field min 3
field max 5
statistic Basic.rack[2].node[8].app 	throughput
field count 185285
field mean 92643
field stddev 53487.316650772
field sum 17165358255
field sqrsum 2.1203279913045e+015
field min 1
field max 185285
statistic Basic.rack[2].node[8].app 	"End-to-End Delay"
field count 185285
field mean 8.8639570340726e-005
field stddev 0.00015656349652792
field sum 16.423582790581
field sqrsum 0.0059974845288245
field min 8.496e-007
field max 0.000419209533
statistic Basic.rack[2].node[8].app 	hops
field count 185285
field mean 4.186690773673
field stddev 0.83279474799622
field sum 775731
field sqrsum 3376249
field min 3
field max 5
statistic Basic.rack[2].node[9].app 	throughput
field count 184430
field mean 92215.5
field stddev 53240.499410693
field sum 17007304665
field sqrsum 2.0911104686789e+015
field min 1
field max 184430
statistic Basic.rack[2].node[9].app 	"End-to-End Delay"
field count 184430
field mean 8.9400543177819e-005
field stddev 0.00015704230500062
field sum 16.488142178285
field sqrsum 0.00602248953026
field min 8.496e-007
field max 0.000419182963
statistic Basic.rack[2].node[9].app 	hops
field count 184430
field mean 4.1904679282112
field stddev 0.83443075096552
field sum 772848
field sqrsum 3367008
field min 3
field max 5
statistic Basic.rack[2].eps.queue[0] 	dropsum
field count 0
field mean nan
field stddev nan
field sum 0
field sqrsum 0
field min nan
field max nan
statistic Basic.rack[2].eps.queue[1] 	dropsum
field count 0
field mean nan
field stddev nan
field sum 0
field sqrsum 0
field min nan
field max nan
statistic Basic.rack[2].eps.queue[2] 	dropsum
field count 0
field mean nan
field stddev nan
field sum 0
field sqrsum 0
field min nan
field max nan
statistic Basic.rack[2].eps.queue[3] 	dropsum
field count 0
field mean nan
field stddev nan
field sum 0
field sqrsum 0
field min nan
field max nan
statistic Basic.rack[3].node[0].app 	throughput
field count 186680
field mean 93340.5
field stddev 53890.018463534
field sum 17424804540
field sqrsum 2.168580815953e+015
field min 1
field max 186680
statistic Basic.rack[3].node[0].app 	"End-to-End Delay"
field count 186680
field mean 9.1942414691379e-005
field stddev 0.00015893606123232
field sum 17.163809974587
field sqrsum 0.0062937190405246
field min 8.496e-007
field max 0.000419216418
statistic Basic.rack[3].node[0].app 	hops
field count 186680
field mean 4.1971019927148
field stddev 0.83229916692059
field sum 783515
field sqrsum 3417809
field min 3
field max 5
statistic Basic.rack[3].node[1].app 	throughput
field count 185796
field mean 92898.5
field stddev 53634.829644551
field sum 17260169706
field sqrsum 2.1379194138539e+015
field min 1
field max 185796
statistic Basic.rack[3].node[1].app 	"End-to-End Delay"
field count 185796
field mean 9.1895315264548e-005
field stddev 0.00015888964170214
field sum 17.073781994892
field sqrsum 0.006259565958623
field min 8.496e-007
field max 0.000419145273
statistic Basic.rack[3].node[1].app 	hops
field count 185796
field mean 4.1988471226506
field stddev 0.83178272360016
field sum 780129
field sqrsum 3404187
field min 3
field max 5
statistic Basic.rack[3].node[2].app 	throughput
field count 186616
field mean 93308.5
field stddev 53871.54325492
field sum 17412859036
field sqrsum 2.1663512055278e+015
field min 1
field max 186616
statistic Basic.rack[3].node[2].app 	"End-to-End Delay"
field count 186616
field mean 9.1862149710279e-005
field stddev 0.00015879198966946
field sum 17.142946930334
field sqrsum 0.0062802657712919
field min 8.496e-007
field max 0.000419204976
statistic Basic.rack[3].node[2].app 	hops
field count 186616
field mean 4.1978233377631
field stddev 0.83364902256027
field sum 783381
field sqrsum 3418187
field min 3
field max 5
statistic Basic.rack[3].node[3].app 	throughput
field count 187559
field mean 93780
field stddev 54143.763906843
field sum 17589283020
field sqrsum 2.1993580857265e+015
field min 1
field max 187559
statistic Basic.rack[3].node[3].app 	"End-to-End Delay"
field count 187559
field mean 9.1716964779115e-005
field stddev 0.0001587654829966
field sum 17.202342197006
field sqrsum 0.0063054233249991
field min 8.496e-007
field max 0.000419157543
statistic Basic.rack[3].node[3].app 	hops
field count 187559
field mean 4.1972179420876
field stddev 0.83181016311697
field sum 787226
field sqrsum 3433932
field min 3
field max 5
statistic Basic.rack[3].node[4].app 	throughput
field count 186995
field mean 93498
field stddev 53980.951130931
field sum 17483658510
field sqrsum 2.1795769766045e+015
field min 1
field max 186995
statistic Basic.rack[3].node[4].app 	"End-to-End Delay"
field count 186995
field mean 9.2061927821367e-005
field stddev 0.00015907885078299
field sum 17.215120192957
field sqrsum 0.0063169424194792
field min 8.496e-007
field max 0.000419225247
statistic Basic.rack[3].node[4].app 	hops
field count 186995
field mean 4.1987753683254
field stddev 0.83220496675063
field sum 785150
field sqrsum 3426174
field min 3
field max 5
statistic Basic.rack[3].node[5].app 	throughput
field count 187186
field mean 93593.5
field stddev 54036.088081639
field sum 17519392891
field sqrsum 2.1862625582608e+015
field min 1
field max 187186
statistic Basic.rack[3].node[5].app 	"End-to-End Delay"
field count 187186
field mean 9.1567333063919e-005
field stddev 0.00015866094996858
field sum 17.140122806903
field sqrsum 0.0062815389411721
field min 8.496e-007
field max 0.000419171008
statistic Basic.rack[3].node[5].app 	hops
field count 187186
field mean 4.1947848663896
field stddev 0.83331206742608
field sum 785205
field sqrsum 3423749
field min 3
field max 5
statistic Basic.rack[3].node[6].app 	throughput
field count 186871
field mean 93436
field stddev 53945.155414241
field sum 17460478756
field sqrsum 2.1752439039012e+015
field min 1
field max 186871
statistic Basic.rack[3].node[6].app 	"End-to-End Delay"
field count 186871
field mean 9.1297842397449e-005
field stddev 0.00015839933819174
field sum 17.060919106654
field sqrsum 0.0062462588717122
field min 8.496e-007
field max 0.000419152897
statistic Basic.rack[3].node[6].app 	hops
field count 186871
field mean 4.1957446580796
field stddev 0.83348108975983
field sum 784063
field sqrsum 3419545
field min 3
field max 5
statistic Basic.rack[3].node[7].app 	throughput
field count 186146
field mean 93073.5
field stddev 53735.865941659
field sum 17325259731
field sqrsum 2.1500243070111e+015
field min 1
field max 186146
statistic Basic.rack[3].node[7].app 	"End-to-End Delay"
field count 186146
field mean 9.1974127624477e-005
field stddev 0.00015893973217788
field sum 17.120615960786
field sqrsum 0.0062770186384125
field min 8.496e-007
field max 0.000419218113
statistic Basic.rack[3].node[7].app 	hops
field count 186146
field mean 4.196383483932
field stddev 0.83305493688921
field sum 781140
field sqrsum 3407144
field min 3
field max 5
statistic Basic.rack[3].node[8].app 	throughput
field count 186325
field mean 93163
field stddev 53787.538790752
field sum 17358595975
field sqrsum 2.1562327162266e+015
field min 1
field max 186325
statistic Basic.rack[3].node[8].app 	"End-to-End Delay"
field count 186325
field mean 9.2049098142628e-005
field stddev 0.00015906787558335
field sum 17.151048211425
field sqrsum 0.0062932181208361
field min 8.496e-007
field max 0.000419277388
statistic Basic.rack[3].node[8].app 	hops
field count 186325
field mean 4.1968066550382
field stddev 0.83201662779025
field sum 781970
field sqrsum 3410760
field min 3
field max 5
statistic Basic.rack[3].node[9].app 	throughput
field count 186611
field mean 93306
field stddev 53870.099879247
field sum 17411925966
field sqrsum 2.1661770816028e+015
field min 1
field max 186611
statistic Basic.rack[3].node[9].app 	"End-to-End Delay"
field count 186611
field mean 9.1423482397864e-005
field stddev 0.0001585508192918
field sum 17.060627473748
field sqrsum 0.0062508117639914
field min 8.496e-007
field max 0.000419170735
statistic Basic.rack[3].node[9].app 	hops
field count 186611
field mean 4.1981072927105
field stddev 0.83243544985659
field sum 783413
field sqrsum 3418163
field min 3
field max 5
statistic Basic.rack[3].eps.queue[0] 	dropsum
field count 0
field mean nan
field stddev nan
field sum 0
field sqrsum 0
field min nan
field max nan
statistic Basic.rack[3].eps.queue[1] 	dropsum
field count 0
field mean nan
field stddev nan
field sum 0
field sqrsum 0
field min nan
field max nan
statistic Basic.rack[3].eps.queue[2] 	dropsum
field count 0
field mean nan
field stddev nan
field sum 0
field sqrsum 0
field min nan
field max nan
statistic Basic.rack[3].eps.queue[3] 	dropsum
field count 0
field mean nan
field stddev nan
field sum 0
field sqrsum 0
field min nan
field max nan
statistic Basic.rack[4].node[0].app 	throughput
field count 170064
field mean 85032.5
field stddev 49093.392427087
field sum 14460967080
field sqrsum 1.6395314239844e+015
field min 1
field max 170064
statistic Basic.rack[4].node[0].app 	"End-to-End Delay"
field count 170064
field mean 0.00037074424217455
field stddev 0.00036861034632827
field sum 63.050248801173
field sqrsum 0.046482586608158
field min 8.992e-006
field max 0.001357362767
statistic Basic.rack[4].node[0].app 	hops
field count 170064
field mean 4.0136713237369
field stddev 1.2098541431495
field sum 682581
field sqrsum 2988585
field min 3
field max 6
statistic Basic.rack[4].node[1].app 	throughput
field count 170509
field mean 85255
field stddev 49221.852861983
field sum 14536744795
field sqrsum 1.652435391082e+015
field min 1
field max 170509
statistic Basic.rack[4].node[1].app 	"End-to-End Delay"
field count 170509
field mean 0.00036963245291199
field stddev 0.00036775411486166
field sum 63.025659913571
field sqrsum 0.046356357889067
field min 8.992e-006
field max 0.001367386212
statistic Basic.rack[4].node[1].app 	hops
field count 170509
field mean 4.0106094106469
field stddev 1.2089405829096
field sum 683845
field sqrsum 2991839
field min 3
field max 6
statistic Basic.rack[4].node[2].app 	throughput
field count 171470
field mean 85735.5
field stddev 49499.269666329
field sum 14701066185
field sqrsum 1.6805327795167e+015
field min 1
field max 171470
statistic Basic.rack[4].node[2].app 	"End-to-End Delay"
field count 171470
field mean 0.00036884782368975
field stddev 0.00036805176646965
field sum 63.246336328082
field sqrsum 0.046555824816221
field min 8.992e-006
field max 0.001368697244
statistic Basic.rack[4].node[2].app 	hops
field count 171470
field mean 4.0080772146731
field stddev 1.2084905820206
field sum 687265
field sqrsum 3005033
field min 3
field max 6
statistic Basic.rack[4].node[3].app 	throughput
field count 171224
field mean 85612.5
field stddev 49428.255583219
field sum 14658914700
field sqrsum 1.6733102267001e+015
field min 1
field max 171224
statistic Basic.rack[4].node[3].app 	"End-to-End Delay"
field count 171224
field mean 0.00037166067460676
field stddev 0.00036928940131448
field sum 63.637227348869
field sqrsum 0.047001933585062
field min 8.992e-006
field max 0.001383094904
statistic Basic.rack[4].node[3].app 	hops
field count 171224
field mean 4.0159965892632
field stddev 1.2109157442029
field sum 687635
field sqrsum 3012607
field min 3
field max 6
statistic Basic.rack[4].node[4].app 	throughput
field count 170889
field mean 85445
field stddev 49331.549413129
field sum 14601610605
field sqrsum 1.6635079569888e+015
field min 1
field max 170889
statistic Basic.rack[4].node[4].app 	"End-to-End Delay"
field count 170889
field mean 0.00037050017764619
field stddev 0.00036843057346353
field sum 63.314404857779
field sqrsum 0.046654521201689
field min 8.992e-006
field max 0.001349460909
statistic Basic.rack[4].node[4].app 	hops
field count 170889
field mean 4.0139271690981
field stddev 1.2095785316006
field sum 685936
field sqrsum 3003320
field min 3
field max 6
statistic Basic.rack[4].node[5].app 	throughput
field count 171335
field mean 85668
field stddev 49460.298523159
field sum 14677926780
field sqrsum 1.6765666158765e+015
field min 1
field max 171335
statistic Basic.rack[4].node[5].app 	"End-to-End Delay"
field count 171335
field mean 0.00036939590769268
field stddev 0.00036796245016526
field sum 63.290447844525
field sqrsum 0.046577233184732
field min 8.992e-006
field max 0.001382494981
statistic Basic.rack[4].node[5].app 	hops
field count 171335
field mean 4.005194501999
field stddev 1.2087724168252
field sum 686230
field sqrsum 2998826
field min 3
field max 6
statistic Basic.rack[4].node[6].app 	throughput
field count 171592
field mean 85796.5
field stddev 49534.48803275
field sum 14721993028
field sqrsum 1.6841223924381e+015
field min 1
field max 171592
statistic Basic.rack[4].node[6].app 	"End-to-End Delay"
field count 171592
field mean 0.00036851092035774
field stddev 0.00036749246201775
field sum 63.233525846025
field sqrsum 0.046475731124798
field min 8.992e-006
field max 0.001392496883
statistic Basic.rack[4].node[6].app 	hops
field count 171592
field mean 4.0060142663994
field stddev 1.2074190674068
field sum 687400
field sqrsum 3003890
field min 3
field max 6
statistic Basic.rack[4].node[7].app 	throughput
field count 171311
field mean 85656
field stddev 49453.370319929
field sum 14673815016
field sqrsum 1.6758621740757e+015
field min 1
field max 171311
statistic Basic.rack[4].node[7].app 	"End-to-End Delay"
field count 171311
field mean 0.00036984621976122
field stddev 0.00036883863148655
field sum 63.358725753515
field sqrsum 0.046738329278154
field min 8.992e-006
field max 0.001369457289
statistic Basic.rack[4].node[7].app 	hops
field count 171311
field mean 4.0108049103677
field stddev 1.2095947633934
field sum 687095
field sqrsum 3006451
field min 3
field max 6
statistic Basic.rack[4].node[8].app 	throughput
field count 171197
field mean 85599
field stddev 49420.461354585
field sum 14654292003
field sqrsum 1.6725187701224e+015
field min 1
field max 171197
statistic Basic.rack[4].node[8].app 	"End-to-End Delay"
field count 171197
field mean 0.00037011316547374
field stddev 0.00036841531401998
field sum 63.362263589607
field sqrsum 0.046687614254436
field min 8.992e-006
field max 0.001354040192
statistic Basic.rack[4].node[8].app 	hops
field count 171197
field mean 4.0113787040661
field stddev 1.2096083567491
field sum 686736
field sqrsum 3005244
field min 3
field max 6
statistic Basic.rack[4].node[9].app 	throughput
field count 171477
field mean 85739
field stddev 49501.290392272
field sum 14702266503
field sqrsum 1.6807386028455e+015
field min 1
field max 171477
statistic Basic.rack[4].node[9].app 	"End-to-End Delay"
field count 171477
field mean 0.0003694103354025
field stddev 0.00036873905568648
field sum 63.345376083814
field sqrsum 0.046715769620368
field min 8.992e-006
field max 0.001376252003
statistic Basic.rack[4].node[9].app 	hops
field count 171477
field mean 4.0083684692408
field stddev 1.2094720892393
field sum 687343
field sqrsum 3005963
field min 3
field max 6
statistic Basic.rack[4].eps.queue[0] 	dropsum
field count 0
field mean nan
field stddev nan
field sum 0
field sqrsum 0
field min nan
field max nan
statistic Basic.rack[4].eps.queue[1] 	dropsum
field count 277978
field mean 138989.5
field stddev 80245.480901834
field sum 38636023231
field sqrsum 7.1599891891457e+015
field min 1
field max 277978
statistic Basic.rack[4].eps.queue[2] 	dropsum
field count 0
field mean nan
field stddev nan
field sum 0
field sqrsum 0
field min nan
field max nan
statistic Basic.rack[4].eps.queue[3] 	dropsum
field count 0
field mean nan
field stddev nan
field sum 0
field sqrsum 0
field min nan
field max nan
statistic Basic.rack[5].node[0].app 	throughput
field count 152546
field mean 76273.5
field stddev 44036.381419231
field sum 11635217331
field sqrsum 1.1832744537223e+015
field min 1
field max 152546
statistic Basic.rack[5].node[0].app 	"End-to-End Delay"
field count 152546
field mean 0.00039044523757144
field stddev 0.00037485267381201
field sum 59.560859210573
field sqrsum 0.044690042355411
field min 8.992e-006
field max 0.001421505338
statistic Basic.rack[5].node[0].app 	hops
field count 152546
field mean 3.9507755037825
field stddev 1.1903646216455
field sum 602675
field sqrsum 2597185
field min 3
field max 6
statistic Basic.rack[5].node[1].app 	throughput
field count 152590
field mean 76295.5
field stddev 44049.083125153
field sum 11641930345
field sqrsum 1.1842986482058e+015
field min 1
field max 152590
statistic Basic.rack[5].node[1].app 	"End-to-End Delay"
field count 152590
field mean 0.00038912912935444
field stddev 0.00037348427835832
field sum 59.377213848194
field sqrsum 0.044390120375868
field min 8.992e-006
field max 0.001419971769
statistic Basic.rack[5].node[1].app 	hops
field count 152590
field mean 3.9476833344256
field stddev 1.1884627033426
field sum 602377
field sqrsum 2593517
field min 3
field max 6
statistic Basic.rack[5].node[2].app 	throughput
field count 152809
field mean 76405
field stddev 44112.30297963
field sum 11675371645
field sqrsum 1.1894051355911e+015
field min 1
field max 152809
statistic Basic.rack[5].node[2].app 	"End-to-End Delay"
field count 152809
field mean 0.00039140273587786
field stddev 0.00037555456440578
field sum 59.80986066676
field sqrsum 0.044961971500562
field min 8.992e-006
field max 0.001387879094
statistic Basic.rack[5].node[2].app 	hops
field count 152809
field mean 3.9526860328907
field stddev 1.1915566877184
field sum 604006
field sqrsum 2604404
field min 3
field max 6
statistic Basic.rack[5].node[3].app 	throughput
field count 152912
field mean 76456.5
field stddev 44142.036518493
field sum 11691116328
field sqrsum 1.1918118836702e+015
field min 1
field max 152912
statistic Basic.rack[5].node[3].app 	"End-to-End Delay"
field count 152912
field mean 0.00039193267026455
field stddev 0.00037549087702402
field sum 59.931208475492
field sqrsum 0.04504844016292
field min 8.992e-006
field max 0.001396524028
statistic Basic.rack[5].node[3].app 	hops
field count 152912
field mean 3.9567398242126
field stddev 1.1918384122788
field sum 605033
field sqrsum 2611165
field min 3
field max 6
statistic Basic.rack[5].node[4].app 	throughput
field count 153165
field mean 76583
field stddev 44215.071327546
field sum 11729835195
field sqrsum 1.1977373817065e+015
field min 1
field max 153165
statistic Basic.rack[5].node[4].app 	"End-to-End Delay"
field count 153165
field mean 0.00039014121441713
field stddev 0.00037538327620595
field sum 59.755979106199
field sqrsum 0.044896008344674
field min 8.992e-006
field max 0.001392673876
statistic Basic.rack[5].node[4].app 	hops
field count 153165
field mean 3.9520712956615
field stddev 1.190914839659
field sum 605319
field sqrsum 2609493
field min 3
field max 6
statistic Basic.rack[5].node[5].app 	throughput
field count 153026
field mean 76513.5
field stddev 44174.945483837
field sum 11708554851
field sqrsum 1.1944794459377e+015
field min 1
field max 153026
statistic Basic.rack[5].node[5].app 	"End-to-End Delay"
field count 153026
field mean 0.00039337303787926
field stddev 0.00037704801012604
field sum 60.196302494512
field sqrsum 0.045434432408235
field min 8.992e-006
field max 0.001381967653
statistic Basic.rack[5].node[5].app 	hops
field count 153026
field mean 3.9606014664175
field stddev 1.1942230553942
field sum 606075
field sqrsum 2618661
field min 3
field max 6
statistic Basic.rack[5].node[6].app 	throughput
field count 152761
field mean 76381
field stddev 44098.446573169
field sum 11668037941
field sqrsum 1.1882846519494e+015
field min 1
field max 152761
statistic Basic.rack[5].node[6].app 	"End-to-End Delay"
field count 152761
field mean 0.00039135996827426
field stddev 0.00037585787637889
field sum 59.784540113544
field sqrsum 0.044977550042866
field min 8.992e-006
field max 0.001393724304
statistic Basic.rack[5].node[6].app 	hops
field count 152761
field mean 3.9554663821263
field stddev 1.1920572592287
field sum 604241
field sqrsum 2607127
field min 3
field max 6
statistic Basic.rack[5].node[7].app 	throughput
field count 152455
field mean 76228
field stddev 44010.111981983
field sum 11621339740
field sqrsum 1.1811581071544e+015
field min 1
field max 152455
statistic Basic.rack[5].node[7].app 	"End-to-End Delay"
field count 152455
field mean 0.00039258157192634
field stddev 0.00037593702974585
field sum 59.85102354803
field sqrsum 0.045042526963926
field min 8.992e-006
field max 0.001391597216
statistic Basic.rack[5].node[7].app 	hops
field count 152455
field mean 3.9570496211997
field stddev 1.1928096311943
field sum 603272
field sqrsum 2604088
field min 3
field max 6
statistic Basic.rack[5].node[8].app 	throughput
field count 152895
field mean 76448
field stddev 44137.129041205
field sum 11688516960
field sqrsum 1.1914144299051e+015
field min 1
field max 152895
statistic Basic.rack[5].node[8].app 	"End-to-End Delay"
field count 152895
field mean 0.00039194932401911
field stddev 0.00037653777671105
field sum 59.927091895902
field sqrsum 0.045165801090564
field min 8.992e-006
field max 0.001390521224
statistic Basic.rack[5].node[8].app 	hops
field count 152895
field mean 3.9575460283201
field stddev 1.1929813561005
field sum 605089
field sqrsum 2612267
field min 3
field max 6
statistic Basic.rack[5].node[9].app 	throughput
field count 153407
field mean 76704
field stddev 44284.930710119
field sum 11766930528
field sqrsum 1.2034235966494e+015
field min 1
field max 153407
statistic Basic.rack[5].node[9].app 	"End-to-End Delay"
field count 153407
field mean 0.00039171614675922
field stddev 0.0003754038125311
field sum 60.091998925891
field sqrsum 0.04515821048425
field min 8.992e-006
field max 0.001390304369
statistic Basic.rack[5].node[9].app 	hops
field count 153407
field mean 3.9554779116989
field stddev 1.1916960438331
field sum 606798
field sqrsum 2618034
field min 3
field max 6
statistic Basic.rack[5].eps.queue[0] 	dropsum
field count 50215
field mean 25108
field stddev 14495.966220527
field sum 1260798220
field sqrsum 42207742010940
field min 1
field max 50215
statistic Basic.rack[5].eps.queue[1] 	dropsum
field count 187559
field mean 93780
field stddev 54143.763906843
field sum 17589283020
field sqrsum 2.1993580857265e+015
field min 1
field max 187559
statistic Basic.rack[5].eps.queue[2] 	dropsum
field count 0
field mean nan
field stddev nan
field sum 0
field sqrsum 0
field min nan
field max nan
statistic Basic.rack[5].eps.queue[3] 	dropsum
field count 0
field mean nan
field stddev nan
field sum 0
field sqrsum 0
field min nan
field max nan
statistic Basic.rack[6].node[0].app 	throughput
field count 181461
field mean 90731
field stddev 52383.422936078
field sum 16464137991
field sqrsum 1.9917381173692e+015
field min 1
field max 181461
statistic Basic.rack[6].node[0].app 	"End-to-End Delay"
field count 181461
field mean 0.00018754412169591
field stddev 0.00019349468958136
field sum 34.031943867062
field sqrsum 0.013176388788015
field min 8.496e-007
field max 0.000419232917
statistic Basic.rack[6].node[0].app 	hops
field count 181461
field mean 4.2366403800266
field stddev 0.81767718201978
field sum 768785
field sqrsum 3378389
field min 3
field max 5
statistic Basic.rack[6].node[1].app 	throughput
field count 180451
field mean 90226
field stddev 52091.861050136
field sum 16281371926
field sqrsum 1.9586653240697e+015
field min 1
field max 180451
statistic Basic.rack[6].node[1].app 	"End-to-End Delay"
field count 180451
field mean 0.00018789957486899
field stddev 0.00019356763141917
field sum 33.906666184685
field sqrsum 0.013132225981878
field min 8.496e-007
field max 0.000419181637
statistic Basic.rack[6].node[1].app 	hops
field count 180451
field mean 4.2348061246543
field stddev 0.81752090187692
field sum 764175
field sqrsum 3356735
field min 3
field max 5
statistic Basic.rack[6].node[2].app 	throughput
field count 180473
field mean 90237
field stddev 52098.211903097
field sum 16285342101
field sqrsum 1.9593817917765e+015
field min 1
field max 180473
statistic Basic.rack[6].node[2].app 	"End-to-End Delay"
field count 180473
field mean 0.00018714337680625
field stddev 0.00019341358252883
field sum 33.774326642354
field sqrsum 0.013071885000566
field min 8.496e-007
field max 0.000419219901
statistic Basic.rack[6].node[2].app 	hops
field count 180473
field mean 4.2338964831304
field stddev 0.81769720319421
field sum 764104
field sqrsum 3355806
field min 3
field max 5
statistic Basic.rack[6].node[3].app 	throughput
field count 180940
field mean 90470.5
field stddev 52233.023190953
field sum 16369732270
field sqrsum 1.9746316945333e+015
field min 1
field max 180940
statistic Basic.rack[6].node[3].app 	"End-to-End Delay"
field count 180940
field mean 0.00018728077175486
field stddev 0.00019349561712476
field sum 33.886582841325
field sqrsum 0.013120761759089
field min 8.496e-007
field max 0.000419196575
statistic Basic.rack[6].node[3].app 	hops
field count 180940
field mean 4.2364319663977
field stddev 0.81754318474783
field sum 766540
field sqrsum 3368330
field min 3
field max 5
statistic Basic.rack[6].node[4].app 	throughput
field count 180363
field mean 90182
field stddev 52066.457638291
field sum 16265496066
field sqrsum 1.9558011998e+015
field min 1
field max 180363
statistic Basic.rack[6].node[4].app 	"End-to-End Delay"
field count 180363
field mean 0.0001878459978332
field stddev 0.00019346365386695
field sum 33.880467707189
field sqrsum 0.013114932632775
field min 8.496e-007
field max 0.0004192518
statistic Basic.rack[6].node[4].app 	hops
field count 180363
field mean 4.2323758198744
field stddev 0.81878628287289
field sum 763364
field sqrsum 3351760
field min 3
field max 5
statistic Basic.rack[6].node[5].app 	throughput
field count 181025
field mean 90513
field stddev 52257.560577394
field sum 16385115825
field sqrsum 1.977415856519e+015
field min 1
field max 181025
statistic Basic.rack[6].node[5].app 	"End-to-End Delay"
field count 181025
field mean 0.00018774136883649
field stddev 0.0001935325227657
field sum 33.985881293626
field sqrsum 0.013160780354895
field min 8.496e-007
field max 0.000419205492
statistic Basic.rack[6].node[5].app 	hops
field count 181025
field mean 4.2339511117249
field stddev 0.8177211578052
field sum 766451
field sqrsum 3366161
field min 3
field max 5
statistic Basic.rack[6].node[6].app 	throughput
field count 181101
field mean 90551
field stddev 52279.499887623
field sum 16398876651
field sqrsum 1.9799074398741e+015
field min 1
field max 181101
statistic Basic.rack[6].node[6].app 	"End-to-End Delay"
field count 181101
field mean 0.00018753061033531
field stddev 0.00019350473950126
field sum 33.961981062335
field sqrsum 0.013150034687147
field min 8.496e-007
field max 0.000419220693
statistic Basic.rack[6].node[6].app 	hops
field count 181101
field mean 4.232831403471
field stddev 0.81833095361714
field sum 766570
field sqrsum 3366038
field min 3
field max 5
statistic Basic.rack[6].node[7].app 	throughput
field count 180903
field mean 90452
field stddev 52222.342210973
field sum 16363038156
field sqrsum 1.973420582036e+015
field min 1
field max 180903
statistic Basic.rack[6].node[7].app 	"End-to-End Delay"
field count 180903
field mean 0.0001873963317503
field stddev 0.00019347742645478
field sum 33.900558602624
field sqrsum 0.013124637975101
field min 8.496e-007
field max 0.00041921168
statistic Basic.rack[6].node[7].app 	hops
field count 180903
field mean 4.2345566408517
field stddev 0.8177682526311
field sum 766044
field sqrsum 3364834
field min 3
field max 5
statistic Basic.rack[6].node[8].app 	throughput
field count 180739
field mean 90370
field stddev 52174.9994889
field sum 16333383430
field sqrsum 1.968058369631e+015
field min 1
field max 180739
statistic Basic.rack[6].node[8].app 	"End-to-End Delay"
field count 180739
field mean 0.00018727124703009
field stddev 0.00019335797407476
field sum 33.847217916971
field sqrsum 0.013095917644633
field min 8.496e-007
field max 0.000419216836
statistic Basic.rack[6].node[8].app 	hops
field count 180739
field mean 4.2365953114712
field stddev 0.81750804133119
field sum 765718
field sqrsum 3364828
field min 3
field max 5
statistic Basic.rack[6].node[9].app 	throughput
field count 181188
field mean 90594.5
field stddev 52304.614624333
field sum 16414636266
field sqrsum 1.9827622153881e+015
field min 1
field max 181188
statistic Basic.rack[6].node[9].app 	"End-to-End Delay"
field count 181188
field mean 0.00018764535534624
field stddev 0.00019348842301192
field sum 33.999086644474
field sqrsum 0.013163007898785
field min 8.496e-007
field max 0.00041920418
statistic Basic.rack[6].node[9].app 	hops
field count 181188
field mean 4.2344305362386
field stddev 0.81713509374019
field sum 767228
field sqrsum 3369754
field min 3
field max 5
statistic Basic.rack[6].eps.queue[0] 	dropsum
field count 0
field mean nan
field stddev nan
field sum 0
field sqrsum 0
field min nan
field max nan
statistic Basic.rack[6].eps.queue[1] 	dropsum
field count 557012
field mean 278506.5
field stddev 160795.65840726
field sum 155131462578
field sqrsum 5.7606775865943e+016
field min 1
field max 557012
statistic Basic.rack[6].eps.queue[2] 	dropsum
field count 0
field mean nan
field stddev nan
field sum 0
field sqrsum 0
field min nan
field max nan
statistic Basic.rack[6].eps.queue[3] 	dropsum
field count 0
field mean nan
field stddev nan
field sum 0
field sqrsum 0
field min nan
field max nan
statistic Basic.rack[7].node[0].app 	throughput
field count 181356
field mean 90678.5
field stddev 52353.112046945
field sum 16445090046
field sqrsum 1.9882826486183e+015
field min 1
field max 181356
statistic Basic.rack[7].node[0].app 	"End-to-End Delay"
field count 181356
field mean 0.00018780872279405
field stddev 0.00019367543753237
field sum 34.060238731038
field sqrsum 0.013199467740006
field min 8.496e-007
field max 0.000419291275
statistic Basic.rack[7].node[0].app 	hops
field count 181356
field mean 4.2389885087893
field stddev 0.81619406722949
field sum 768766
field sqrsum 3379604
field min 3
field max 5
statistic Basic.rack[7].node[1].app 	throughput
field count 180503
field mean 90252
field stddev 52106.872157135
field sum 16290756756
field sqrsum 1.9603590747378e+015
field min 1
field max 180503
statistic Basic.rack[7].node[1].app 	"End-to-End Delay"
field count 180503
field mean 0.00018798057842326
field stddev 0.00019365463088711
field sum 33.931058347134
field sqrsum 0.013147586928395
field min 8.496e-007
field max 0.00041919733
statistic Basic.rack[7].node[1].app 	hops
field count 180503
field mean 4.2371982737129
field stddev 0.81805125338173
field sum 764827
field sqrsum 3361517
field min 3
field max 5
statistic Basic.rack[7].node[2].app 	throughput
field count 180448
field mean 90224.5
field stddev 52090.995024732
field sum 16280830576
field sqrsum 1.9585676374622e+015
field min 1
field max 180448
statistic Basic.rack[7].node[2].app 	"End-to-End Delay"
field count 180448
field mean 0.00018621126482642
field stddev 0.00019344255934646
field sum 33.601450315398
field sqrsum 0.013009299591828
field min 8.496e-007
field max 0.000419207615
statistic Basic.rack[7].node[2].app 	hops
field count 180448
field mean 4.2389441833658
field stddev 0.81571038315273
field sum 764909
field sqrsum 3362473
field min 3
field max 5
statistic Basic.rack[7].node[3].app 	throughput
field count 180293
field mean 90147
field stddev 52046.25037887
field sum 16252873071
field sqrsum 1.9535249140176e+015
field min 1
field max 180293
statistic Basic.rack[7].node[3].app 	"End-to-End Delay"
field count 180293
field mean 0.0001873710185853
field stddev 0.0001935506100147
field sum 33.781683053799
field sqrsum 0.01308377817487
field min 8.496e-007
field max 0.000419202805
statistic Basic.rack[7].node[3].app 	hops
field count 180293
field mean 4.2395655960021
field stddev 0.81714172700297
field sum 764364
field sqrsum 3360956
field min 3
field max 5
statistic Basic.rack[7].node[4].app 	throughput
field count 181341
field mean 90671
field stddev 52348.781919926
field sum 16442369811
field sqrsum 1.987789336721e+015
field min 1
field max 181341
statistic Basic.rack[7].node[4].app 	"End-to-End Delay"
field count 181341
field mean 0.00018778279685964
field stddev 0.00019367692989881
field sum 34.052720165325
field sqrsum 0.013196715014083
field min 8.496e-007
field max 0.000419198557
statistic Basic.rack[7].node[4].app 	hops
field count 181341
field mean 4.236824546021
field stddev 0.81718518325199
field sum 768310
field sqrsum 3376292
field min 3
field max 5
statistic Basic.rack[7].node[5].app 	throughput
field count 180786
field mean 90393.5
field stddev 52188.567220226
field sum 16341879291
field sqrsum 1.9695941069616e+015
field min 1
field max 180786
statistic Basic.rack[7].node[5].app 	"End-to-End Delay"
field count 180786
field mean 0.00018777411694031
field stddev 0.00019366978755549
field sum 33.94693150517
field sqrsum 0.013155236445828
field min 8.496e-007
field max 0.00041920418
statistic Basic.rack[7].node[5].app 	hops
field count 180786
field mean 4.2360359762371
field stddev 0.81653905479173
field sum 765816
field sqrsum 3364560
field min 3
field max 5
statistic Basic.rack[7].node[6].app 	throughput
field count 181000
field mean 90500.5
field stddev 52250.343699029
field sum 16380590500
field sqrsum 1.9765967138635e+015
field min 1
field max 181000
statistic Basic.rack[7].node[6].app 	"End-to-End Delay"
field count 181000
field mean 0.00018782785108789
field stddev 0.00019369526626768
field sum 33.996841046909
field sqrsum 0.013176248047348
field min 8.496e-007
field max 0.000419216495
statistic Basic.rack[7].node[6].app 	hops
field count 181000
field mean 4.2387348066298
field stddev 0.81723052779526
field sum 767211
field sqrsum 3372887
field min 3
field max 5
statistic Basic.rack[7].node[7].app 	throughput
field count 181542
field mean 90771.5
field stddev 52406.80562198
field sum 16478839653
field sqrsum 1.9944064984698e+015
field min 1
field max 181542
statistic Basic.rack[7].node[7].app 	"End-to-End Delay"
field count 181542
field mean 0.00018669500199976
field stddev 0.00019351185619971
field sum 33.892984053041
field sqrsum 0.013125787231848
field min 8.496e-007
field max 0.00041922076
statistic Basic.rack[7].node[7].app 	hops
field count 181542
field mean 4.242792301506
field stddev 0.81491677164104
field sum 770245
field sqrsum 3388549
field min 3
field max 5
statistic Basic.rack[7].node[8].app 	throughput
field count 180534
field mean 90267.5
field stddev 52115.821086307
field sum 16296352845
field sqrsum 1.9613692751304e+015
field min 1
field max 180534
statistic Basic.rack[7].node[8].app 	"End-to-End Delay"
field count 180534
field mean 0.00018744317698503
field stddev 0.00019363842426999
field sum 33.839866513815
field sqrsum 0.013112288454152
field min 8.496e-007
field max 0.000419247255
statistic Basic.rack[7].node[8].app 	hops
field count 180534
field mean 4.2396279925111
field stddev 0.81593711246289
field sum 765397
field sqrsum 3365189
field min 3
field max 5
statistic Basic.rack[7].node[9].app 	throughput
field count 180938
field mean 90469.5
field stddev 52232.445840684
field sum 16369370391
field sqrsum 1.974566216328e+015
field min 1
field max 180938
statistic Basic.rack[7].node[9].app 	"End-to-End Delay"
field count 180938
field mean 0.00018726762815631
field stddev 0.00019362729375985
field sum 33.883830103346
field sqrsum 0.013128949258851
field min 8.496e-007
field max 0.000419234831
statistic Basic.rack[7].node[9].app 	hops
field count 180938
field mean 4.2359869126441
field stddev 0.81624584987436
field sum 766451
field sqrsum 3367227
field min 3
field max 5
statistic Basic.rack[7].eps.queue[0] 	dropsum
field count 559674
field mean 279837.5
field stddev 161564.11161554
field sum 156617772975
field sqrsum 5.8436649187051e+016
field min 1
field max 559674
statistic Basic.rack[7].eps.queue[1] 	dropsum
field count 0
field mean nan
field stddev nan
field sum 0
field sqrsum 0
field min nan
field max nan
statistic Basic.rack[7].eps.queue[2] 	dropsum
field count 0
field mean nan
field stddev nan
field sum 0
field sqrsum 0
field min nan
field max nan
statistic Basic.rack[7].eps.queue[3] 	dropsum
field count 0
field mean nan
field stddev nan
field sum 0
field sqrsum 0
field min nan
field max nan
statistic Basic.rack[8].node[0].app 	throughput
field count 153361
field mean 76681
field stddev 44271.651653927
field sum 11759874841
field sqrsum 1.2023413636187e+015
field min 1
field max 153361
statistic Basic.rack[8].node[0].app 	"End-to-End Delay"
field count 153361
field mean 0.00038741070462288
field stddev 0.00037206304502831
field sum 59.41369307167
field sqrsum 0.044247264974342
field min 8.992e-006
field max 0.00142770665
statistic Basic.rack[8].node[0].app 	hops
field count 153361
field mean 3.9461597146602
field stddev 1.1867169349724
field sum 605187
field sqrsum 2604141
field min 3
field max 6
statistic Basic.rack[8].node[1].app 	throughput
field count 152897
field mean 76449
field stddev 44137.706391474
field sum 11688822753
field sqrsum 1.1914611845845e+015
field min 1
field max 152897
statistic Basic.rack[8].node[1].app 	"End-to-End Delay"
field count 152897
field mean 0.000388606997103
field stddev 0.00037231577352765
field sum 59.416844036058
field sqrsum 0.044284097346804
field min 8.992e-006
field max 0.001362407036
statistic Basic.rack[8].node[1].app 	hops
field count 152897
field mean 3.9496981628155
field stddev 1.187645610717
field sum 603897
field sqrsum 2600871
field min 3
field max 6
statistic Basic.rack[8].node[2].app 	throughput
field count 152669
field mean 76335
field stddev 44071.888460786
field sum 11653988115
field sqrsum 1.186139025682e+015
field min 1
field max 152669
statistic Basic.rack[8].node[2].app 	"End-to-End Delay"
field count 152669
field mean 0.00038579055698503
field stddev 0.00036964664408784
field sum 58.898258544348
field sqrsum 0.043582740087565
field min 8.992e-006
field max 0.001378749603
statistic Basic.rack[8].node[2].app 	hops
field count 152669
field mean 3.9394834576764
field stddev 1.1832510749005
field sum 601437
field sqrsum 2583099
field min 3
field max 6
statistic Basic.rack[8].node[3].app 	throughput
field count 151832
field mean 75916.5
field stddev 43830.267373129
field sum 11526554028
field sqrsum 1.1667370096375e+015
field min 1
field max 151832
statistic Basic.rack[8].node[3].app 	"End-to-End Delay"
field count 151832
field mean 0.00038909629030127
field stddev 0.00037255896336615
field sum 59.077267949023
field sqrsum 0.044060916109517
field min 8.992e-006
field max 0.001357768156
statistic Basic.rack[8].node[3].app 	hops
field count 151832
field mean 3.9478041519574
field stddev 1.1880598100342
field sum 599403
field sqrsum 2580633
field min 3
field max 6
statistic Basic.rack[8].node[4].app 	throughput
field count 152495
field mean 76248
field stddev 44021.658987367
field sum 11627438760
field sqrsum 1.1820880582837e+015
field min 1
field max 152495
statistic Basic.rack[8].node[4].app 	"End-to-End Delay"
field count 152495
field mean 0.00038726654155771
field stddev 0.00037196459820761
field sum 59.056211254843
field sqrsum 0.043969208047953
field min 8.992e-006
field max 0.001358050813
statistic Basic.rack[8].node[4].app 	hops
field count 152495
field mean 3.9461818420276
field stddev 1.1865911013312
field sum 601773
field sqrsum 2589417
field min 3
field max 6
statistic Basic.rack[8].node[5].app 	throughput
field count 151617
field mean 75809
field stddev 43768.202219191
field sum 11493933153
field sqrsum 1.16178760655e+015
field min 1
field max 151617
statistic Basic.rack[8].node[5].app 	"End-to-End Delay"
field count 151617
field mean 0.00038819291659285
field stddev 0.00037246138526121
field sum 58.856645435059
field sqrsum 0.043881038992265
field min 8.992e-006
field max 0.001358034559
statistic Basic.rack[8].node[5].app 	hops
field count 151617
field mean 3.9468661165964
field stddev 1.1874158604617
field sum 598412
field sqrsum 2575624
field min 3
field max 6
statistic Basic.rack[8].node[6].app 	throughput
field count 152350
field mean 76175.5
field stddev 43979.80109285
field sum 11605337425
field sqrsum 1.178719306245e+015
field min 1
field max 152350
statistic Basic.rack[8].node[6].app 	"End-to-End Delay"
field count 152350
field mean 0.0003888978340032
field stddev 0.00037345969543613
field sum 59.248585010387
field sqrsum 0.044290088062108
field min 8.992e-006
field max 0.001347645486
statistic Basic.rack[8].node[6].app 	hops
field count 152350
field mean 3.9511060059074
field stddev 1.1890491535548
field sum 601951
field sqrsum 2593769
field min 3
field max 6
statistic Basic.rack[8].node[7].app 	throughput
field count 152397
field mean 76199
field stddev 43993.368824176
field sum 11612499003
field sqrsum 1.1798105445398e+015
field min 1
field max 152397
statistic Basic.rack[8].node[7].app 	"End-to-End Delay"
field count 152397
field mean 0.00038658109456251
field stddev 0.00037259777153078
field sum 58.913799068043
field sqrsum 0.043931960353057
field min 8.992e-006
field max 0.001404859003
statistic Basic.rack[8].node[7].app 	hops
field count 152397
field mean 3.9398347736504
field stddev 1.186629850836
field sum 600419
field sqrsum 2580139
field min 3
field max 6
statistic Basic.rack[8].node[8].app 	throughput
field count 152255
field mean 76128
field stddev 43952.376955064
field sum 11590868640
field sqrsum 1.1765156668117e+015
field min 1
field max 152255
statistic Basic.rack[8].node[8].app 	"End-to-End Delay"
field count 152255
field mean 0.00038736811295519
field stddev 0.00037243984355023
field sum 58.978732037993
field sqrsum 0.043965851272748
field min 8.992e-006
field max 0.001348374137
statistic Basic.rack[8].node[8].app 	hops
field count 152255
field mean 3.944238284457
field stddev 1.1870481851087
field sum 600530
field sqrsum 2583172
field min 3
field max 6
statistic Basic.rack[8].node[9].app 	throughput
field count 152892
field mean 76446.5
field stddev 44136.263015801
field sum 11688058278
field sqrsum 1.1913443001794e+015
field min 1
field max 152892
statistic Basic.rack[8].node[9].app 	"End-to-End Delay"
field count 152892
field mean 0.00038767047806326
field stddev 0.00037143043425377
field sum 59.271714732049
field sqrsum 0.044070823109907
field min 8.992e-006
field max 0.001385993428
statistic Basic.rack[8].node[9].app 	hops
field count 152892
field mean 3.947655861654
field stddev 1.1862983730594
field sum 603565
field sqrsum 2597831
field min 3
field max 6
statistic Basic.rack[8].eps.queue[0] 	dropsum
field count 186487
field mean 93244
field stddev 53834.304162557
field sum 17388793828
field sqrsum 2.1618617926661e+015
field min 1
field max 186487
statistic Basic.rack[8].eps.queue[1] 	dropsum
field count 52327
field mean 26164
field stddev 15105.64810482
field sum 1369083628
field sqrsum 47760482362780
field min 1
field max 52327
statistic Basic.rack[8].eps.queue[2] 	dropsum
field count 0
field mean nan
field stddev nan
field sum 0
field sqrsum 0
field min nan
field max nan
statistic Basic.rack[8].eps.queue[3] 	dropsum
field count 0
field mean nan
field stddev nan
field sum 0
field sqrsum 0
field min nan
field max nan
statistic Basic.rack[9].node[0].app 	throughput
field count 169591
field mean 84796
field stddev 48956.849088423
field sum 14380638436
field sqrsum 1.6258893622126e+015
field min 1
field max 169591
statistic Basic.rack[9].node[0].app 	"End-to-End Delay"
field count 169591
field mean 0.00037854179200134
field stddev 0.00036970152104998
field sum 64.1972810473
field sqrsum 0.047480781824579
field min 8.992e-006
field max 0.001348206718
statistic Basic.rack[9].node[0].app 	hops
field count 169591
field mean 4.0086030508694
field stddev 1.2117426913147
field sum 679823
field sqrsum 2974153
field min 3
field max 6
statistic Basic.rack[9].node[1].app 	throughput
field count 170216
field mean 85108.5
field stddev 49137.271047546
field sum 14486828436
field sqrsum 1.6439314883176e+015
field min 1
field max 170216
statistic Basic.rack[9].node[1].app 	"End-to-End Delay"
field count 170216
field mean 0.00037788744219053
field stddev 0.00037026573592042
field sum 64.322488859903
field sqrsum 0.047642578167802
field min 8.992e-006
field max 0.001394303148
statistic Basic.rack[9].node[1].app 	hops
field count 170216
field mean 4.0015215960897
field stddev 1.2117680418258
field sum 681123
field sqrsum 2975469
field min 3
field max 6
statistic Basic.rack[9].node[2].app 	throughput
field count 170633
field mean 85317
field stddev 49257.648578673
field sum 14557895661
field sqrsum 1.6560431261808e+015
field min 1
field max 170633
statistic Basic.rack[9].node[2].app 	"End-to-End Delay"
field count 170633
field mean 0.00037633712460449
field stddev 0.00036846907756456
field sum 64.215532582639
field sqrsum 0.047333303577142
field min 8.992e-006
field max 0.001383984828
statistic Basic.rack[9].node[2].app 	hops
field count 170633
field mean 4.0016819724203
field stddev 1.2097340804957
field sum 682819
field sqrsum 2982137
field min 3
field max 6
statistic Basic.rack[9].node[3].app 	throughput
field count 169649
field mean 84825
field stddev 48973.59224623
field sum 14390476425
field sqrsum 1.627558086842e+015
field min 1
field max 169649
statistic Basic.rack[9].node[3].app 	"End-to-End Delay"
field count 169649
field mean 0.00037816287372008
field stddev 0.00036926283243072
field sum 64.154953363738
field sqrsum 0.047393381254044
field min 8.992e-006
field max 0.001344822158
statistic Basic.rack[9].node[3].app 	hops
field count 169649
field mean 4.0026053793421
field stddev 1.210675034857
field sum 679038
field sqrsum 2966580
field min 3
field max 6
statistic Basic.rack[9].node[4].app 	throughput
field count 170063
field mean 85032
field stddev 49093.103751953
field sum 14460797016
field sqrsum 1.6395025022203e+015
field min 1
field max 170063
statistic Basic.rack[9].node[4].app 	"End-to-End Delay"
field count 170063
field mean 0.0003779953633443
field stddev 0.00036942428576541
field sum 64.283025476422
field sqrsum 0.04750777847387
field min 8.992e-006
field max 0.001363728405
statistic Basic.rack[9].node[4].app 	hops
field count 170063
field mean 4.005427400434
field stddev 1.2108166756223
field sum 681175
field sqrsum 2977721
field min 3
field max 6
statistic Basic.rack[9].node[5].app 	throughput
field count 170222
field mean 85111.5
field stddev 49139.003098354
field sum 14487849753
field sqrsum 1.6441053363867e+015
field min 1
field max 170222
statistic Basic.rack[9].node[5].app 	"End-to-End Delay"
field count 170222
field mean 0.00037620563987086
field stddev 0.00036850395311698
field sum 64.038476430097
field sqrsum 0.047206824521548
field min 8.992e-006
field max 0.00133682559
statistic Basic.rack[9].node[5].app 	hops
field count 170222
field mean 3.9998296342423
field stddev 1.2093017000985
field sum 680859
field sqrsum 2972253
field min 3
field max 6
statistic Basic.rack[9].node[6].app 	throughput
field count 170046
field mean 85023.5
field stddev 49088.196274665
field sum 14457906081
field sqrsum 1.6390108842685e+015
field min 1
field max 170046
statistic Basic.rack[9].node[6].app 	"End-to-End Delay"
field count 170046
field mean 0.00037784571478366
field stddev 0.0003694956571615
field sum 64.251152416103
field sqrsum 0.047492763239571
field min 8.992e-006
field max 0.001370890829
statistic Basic.rack[9].node[6].app 	hops
field count 170046
field mean 4.0055926043541
field stddev 1.2113377417323
field sum 681135
field sqrsum 2977863
field min 3
field max 6
statistic Basic.rack[9].node[7].app 	throughput
field count 169723
field mean 84862
field stddev 48994.95420619
field sum 14403033226
field sqrsum 1.6296888064887e+015
field min 1
field max 169723
statistic Basic.rack[9].node[7].app 	"End-to-End Delay"
field count 169723
field mean 0.00037901749127016
field stddev 0.00037037264919346
field sum 64.327985670846
field sqrsum 0.047663199723429
field min 8.992e-006
field max 0.001367238613
statistic Basic.rack[9].node[7].app 	hops
field count 169723
field mean 4.0084078174437
field stddev 1.2124104457194
field sum 680319
field sqrsum 2976477
field min 3
field max 6
statistic Basic.rack[9].node[8].app 	throughput
field count 170192
field mean 85096.5
field stddev 49130.342844316
field sum 14482743528
field sqrsum 1.6432362185928e+015
field min 1
field max 170192
statistic Basic.rack[9].node[8].app 	"End-to-End Delay"
field count 170192
field mean 0.00037702359933424
field stddev 0.00036937892289168
field sum 64.166400417894
field sqrsum 0.047413241507539
field min 8.992e-006
field max 0.001375354514
statistic Basic.rack[9].node[8].app 	hops
field count 170192
field mean 4.0012985334211
field stddev 1.2105876022355
field sum 680989
field sqrsum 2974259
field min 3
field max 6
statistic Basic.rack[9].node[9].app 	throughput
field count 169975
field mean 84988
field stddev 49067.700340108
field sum 14445835300
field sqrsum 1.6369587186901e+015
field min 1
field max 169975
statistic Basic.rack[9].node[9].app 	"End-to-End Delay"
field count 169975
field mean 0.00037941766452152
field stddev 0.00037099546486558
field sum 64.491517527046
field sqrsum 0.047864040324693
field min 8.992e-006
field max 0.001353252748
statistic Basic.rack[9].node[9].app 	hops
field count 169975
field mean 4.0129136637741
field stddev 1.2138295316972
field sum 682095
field sqrsum 2987625
field min 3
field max 6
statistic Basic.rack[9].eps.queue[0] 	dropsum
field count 279337
field mean 139669
field stddev 80637.790409749
field sum 39014719453
field sqrsum 7.2655161301349e+015
field min 1
field max 279337
statistic Basic.rack[9].eps.queue[1] 	dropsum
field count 0
field mean nan
field stddev nan
field sum 0
field sqrsum 0
field min nan
field max nan
statistic Basic.rack[9].eps.queue[2] 	dropsum
field count 0
field mean nan
field stddev nan
field sum 0
field sqrsum 0
field min nan
field max nan
statistic Basic.rack[9].eps.queue[3] 	dropsum
field count 0
field mean nan
field stddev nan
field sum 0
field sqrsum 0
field min nan
field max nan
statistic Basic.rack[10].node[0].app 	throughput
field count 187346
field mean 93673.5
field stddev 54082.276103175
field sum 17549355531
field sqrsum 2.1918735573257e+015
field min 1
field max 187346
statistic Basic.rack[10].node[0].app 	"End-to-End Delay"
field count 187346
field mean 9.2587794573981e-005
field stddev 0.00015950737423747
field sum 17.345952962257
field sqrsum 0.0063725678829564
field min 8.496e-007
field max 0.000419161366
statistic Basic.rack[10].node[0].app 	hops
field count 187346
field mean 4.1986645031119
field stddev 0.83300086875671
field sum 786603
field sqrsum 3432679
field min 3
field max 5
statistic Basic.rack[10].node[1].app 	throughput
field count 186582
field mean 93291.5
field stddev 53861.728300343
field sum 17406514653
field sqrsum 2.1651673468289e+015
field min 1
field max 186582
statistic Basic.rack[10].node[1].app 	"End-to-End Delay"
field count 186582
field mean 9.2275931734772e-005
field stddev 0.00015931292058526
field sum 17.217027894937
field sqrsum 0.0063242562629467
field min 8.496e-007
field max 0.000419214767
statistic Basic.rack[10].node[1].app 	hops
field count 186582
field mean 4.1985025350784
field stddev 0.83254485022184
field sum 783365
field sqrsum 3418285
field min 3
field max 5
statistic Basic.rack[10].node[2].app 	throughput
field count 186177
field mean 93089
field stddev 53744.814870832
field sum 17331030753
field sqrsum 2.1510986520111e+015
field min 1
field max 186177
statistic Basic.rack[10].node[2].app 	"End-to-End Delay"
field count 186177
field mean 9.2263119848405e-005
field stddev 0.00015925277413478
field sum 17.177270864016
field sqrsum 0.0063065211838536
field min 8.496e-007
field max 0.000419312512
statistic Basic.rack[10].node[2].app 	hops
field count 186177
field mean 4.1979514118285
field stddev 0.83375801600481
field sum 781562
field sqrsum 3410380
field min 3
field max 5
statistic Basic.rack[10].node[3].app 	throughput
field count 186337
field mean 93169
field stddev 53791.002892367
field sum 17360831953
field sqrsum 2.1566493493614e+015
field min 1
field max 186337
statistic Basic.rack[10].node[3].app 	"End-to-End Delay"
field count 186337
field mean 9.192351327111e-005
field stddev 0.00015907490214914
field sum 17.128751692399
field sqrsum 0.0062897348103829
field min 8.496e-007
field max 0.000419174893
statistic Basic.rack[10].node[3].app 	hops
field count 186337
field mean 4.1963646511428
field stddev 0.83316271248766
field sum 781938
field sqrsum 3410644
field min 3
field max 5
statistic Basic.rack[10].node[4].app 	throughput
field count 186586
field mean 93293.5
field stddev 53862.883000882
field sum 17407260991
field sqrsum 2.1653066019315e+015
field min 1
field max 186586
statistic Basic.rack[10].node[4].app 	"End-to-End Delay"
field count 186586
field mean 9.2413556163308e-005
field stddev 0.00015935760483632
field sum 17.243075790287
field sqrsum 0.0063317913347773
field min 8.496e-007
field max 0.000419165776
statistic Basic.rack[10].node[4].app 	hops
field count 186586
field mean 4.2009957874653
field stddev 0.83205294883771
field sum 783847
field sqrsum 3422113
field min 3
field max 5
statistic Basic.rack[10].node[5].app 	throughput
field count 186111
field mean 93056
field stddev 53725.762311949
field sum 17318745216
field sqrsum 2.1488117668451e+015
field min 1
field max 186111
statistic Basic.rack[10].node[5].app 	"End-to-End Delay"
field count 186111
field mean 9.1936018143866e-005
field stddev 0.00015899048087829
field sum 17.110304272773
field sqrsum 0.0062775368009432
field min 8.496e-007
field max 0.000419224183
statistic Basic.rack[10].node[5].app 	hops
field count 186111
field mean 4.1978926554583
field stddev 0.83259330654068
field sum 781274
field sqrsum 3408718
field min 3
field max 5
statistic Basic.rack[10].node[6].app 	throughput
field count 187379
field mean 93690
field stddev 54091.802382616
field sum 17555538510
field sqrsum 2.193032018823e+015
field min 1
field max 187379
statistic Basic.rack[10].node[6].app 	"End-to-End Delay"
field count 187379
field mean 9.1173259036706e-005
field stddev 0.00015849246962045
field sum 17.083954105039
field sqrsum 0.0062645094484108
field min 8.496e-007
field max 0.00041926527
statistic Basic.rack[10].node[6].app 	hops
field count 187379
field mean 4.191419529403
field stddev 0.8336744557835
field sum 785384
field sqrsum 3422104
field min 3
field max 5
statistic Basic.rack[10].node[7].app 	throughput
field count 186763
field mean 93382
field stddev 53913.978499705
field sum 17440302466
field sqrsum 2.1714746197392e+015
field min 1
field max 186763
statistic Basic.rack[10].node[7].app 	"End-to-End Delay"
field count 186763
field mean 9.1830548935427e-005
field stddev 0.00015895252783415
field sum 17.150548810827
field sqrsum 0.0062936554677991
field min 8.496e-007
field max 0.000419214944
statistic Basic.rack[10].node[7].app 	hops
field count 186763
field mean 4.1990972515969
field stddev 0.83236555469369
field sum 784236
field sqrsum 3422478
field min 3
field max 5
statistic Basic.rack[10].node[8].app 	throughput
field count 186893
field mean 93447
field stddev 53951.506267203
field sum 17464590171
field sqrsum 2.1760122554159e+015
field min 1
field max 186893
statistic Basic.rack[10].node[8].app 	"End-to-End Delay"
field count 186893
field mean 9.2117081201336e-005
field stddev 0.00015914755956686
field sum 17.216037656961
field sqrsum 0.0063194815695828
field min 8.496e-007
field max 0.00041921242
statistic Basic.rack[10].node[8].app 	hops
field count 186893
field mean 4.2003606341597
field stddev 0.83182688185391
field sum 785018
field sqrsum 3426676
field min 3
field max 5
statistic Basic.rack[10].node[9].app 	throughput
field count 187148
field mean 93574.5
field stddev 54025.118426525
field sum 17512280526
field sqrsum 2.1849313546801e+015
field min 1
field max 187148
statistic Basic.rack[10].node[9].app 	"End-to-End Delay"
field count 187148
field mean 9.2063720086063e-005
field stddev 0.00015919587884362
field sum 17.229541086666
field sqrsum 0.0063291434232351
field min 8.496e-007
field max 0.000419180286
statistic Basic.rack[10].node[9].app 	hops
field count 187148
field mean 4.1956633252827
field stddev 0.83249936564769
field sum 785210
field sqrsum 3424180
field min 3
field max 5
statistic Basic.rack[10].eps.queue[0] 	dropsum
field count 0
field mean nan
field stddev nan
field sum 0
field sqrsum 0
field min nan
field max nan
statistic Basic.rack[10].eps.queue[1] 	dropsum
field count 0
field mean nan
field stddev nan
field sum 0
field sqrsum 0
field min nan
field max nan
statistic Basic.rack[10].eps.queue[2] 	dropsum
field count 0
field mean nan
field stddev nan
field sum 0
field sqrsum 0
field min nan
field max nan
statistic Basic.rack[10].eps.queue[3] 	dropsum
field count 0
field mean nan
field stddev nan
field sum 0
field sqrsum 0
field min nan
field max nan
statistic Basic.rack[11].node[0].app 	throughput
field count 177362
field mean 88681.5
field stddev 51200.143559369
field sum 15728728203
field sqrsum 1.8597910372697e+015
field min 1
field max 177362
statistic Basic.rack[11].node[0].app 	"End-to-End Delay"
field count 177362
field mean 7.5569606837016e-005
field stddev 0.00014533092228301
field sum 13.403176607827
field sqrsum 0.0047589281193857
field min 8.496e-007
field max 0.000419184658
statistic Basic.rack[11].node[0].app 	hops
field count 177362
field mean 4.1549824652406
field stddev 0.83377462430084
field sum 736936
field sqrsum 3185254
field min 3
field max 5
statistic Basic.rack[11].node[1].app 	throughput
field count 177569
field mean 88785
field stddev 51259.89931223
field sum 15765463665
field sqrsum 1.8663103335081e+015
field min 1
field max 177569
statistic Basic.rack[11].node[1].app 	"End-to-End Delay"
field count 177569
field mean 7.5498688822519e-005
field stddev 0.00014521156664543
field sum 13.406226675526
field sqrsum 0.0047564222492501
field min 8.496e-007
field max 0.000419141396
statistic Basic.rack[11].node[1].app 	hops
field count 177569
[...]
statistic Basic.rack[13].node[2].app 	"End-to-End Delay"
field count 163766
field mean 0.00047218766095337
field stddev 0.00042608914789564
field sum 77.32828448369
field sqrsum 0.066245318825357
field min 8.992e-006
field max 0.001659937179
statistic Basic.rack[13].node[2].app 	hops
field count 163766
field mean 4.0956364568958
field stddev 1.2600795438487
field sum 670726
field sqrsum 3007076
field min 3
field max 6
statistic Basic.rack[13].node[3].app 	throughput
field count 165006
field mean 82503.5
field stddev 47633.2735963
field sum 13613572521
field sqrsum 1.4975519694576e+015
field min 1
field max 165006
statistic Basic.rack[13].node[3].app 	"End-to-End Delay"
field count 165006
field mean 0.00047379964744776
field stddev 0.00042745652192842
field sum 78.179784626765
field sqrsum 0.067191115882052
field min 8.992e-006
field max 0.00166029033
statistic Basic.rack[13].node[3].app 	hops
field count 165006
field mean 4.0990630643734
field stddev 1.2617418340063
field sum 676370
field sqrsum 3035170
field min 3
field max 6
statistic Basic.rack[13].node[4].app 	throughput
field count 163661
field mean 81831
field stddev 47245.005540268
field sum 13392543291
field sqrsum 1.4612291492133e+015
field min 1
field max 163661
statistic Basic.rack[13].node[4].app 	"End-to-End Delay"
field count 163661
field mean 0.00047132192016298
field stddev 0.00042598461566154
field sum 77.137016775794
field sqrsum 0.066054583894837
field min 8.992e-006
field max 0.001667326295
statistic Basic.rack[13].node[4].app 	hops
field count 163661
field mean 4.0924349722903
field stddev 1.2594737988158
field sum 669772
field sqrsum 3000608
field min 3
field max 6
statistic Basic.rack[13].node[5].app 	throughput
field count 163657
field mean 81829
field stddev 47243.85083973
field sum 13391888653
field sqrsum 1.4611220114856e+015
field min 1
field max 163657
statistic Basic.rack[13].node[5].app 	"End-to-End Delay"
field count 163657
field mean 0.0004712304973765
field stddev 0.00042578236000778
field sum 77.120169509145
field sqrsum 0.066010673230312
field min 8.992e-006
field max 0.00166002735
statistic Basic.rack[13].node[5].app 	hops
field count 163657
field mean 4.0899075505478
field stddev 1.2595897491258
field sum 669342
field sqrsum 2997198
field min 3
field max 6
statistic Basic.rack[13].node[6].app 	throughput
field count 164030
field mean 82015.5
field stddev 47351.526664934
field sum 13453002465
field sqrsum 1.4711351472235e+015
field min 1
field max 164030
statistic Basic.rack[13].node[6].app 	"End-to-End Delay"
field count 164030
field mean 0.00047126734230345
field stddev 0.00042607886117603
field sum 77.301982158036
field sqrsum 0.066208248573423
field min 8.992e-006
field max 0.001659936862
statistic Basic.rack[13].node[6].app 	hops
field count 164030
field mean 4.0904712552582
field stddev 1.2595861602866
field sum 670960
field sqrsum 3004784
field min 3
field max 6
statistic Basic.rack[13].node[7].app 	throughput
field count 164498
field mean 82249.5
field stddev 47486.626627925
field sum 13529878251
field sqrsum 1.4837631183147e+015
field min 1
field max 164498
statistic Basic.rack[13].node[7].app 	"End-to-End Delay"
field count 164498
field mean 0.00046989323902289
field stddev 0.00042504337469073
field sum 77.296498032787
field sqrsum 0.066039437515756
field min 8.992e-006
field max 0.001659867002
statistic Basic.rack[13].node[7].app 	hops
field count 164498
field mean 4.087180391251
field stddev 1.2584872894186
field sum 672333
field sqrsum 3008475
field min 3
field max 6
statistic Basic.rack[13].node[8].app 	throughput
field count 164253
field mean 82127
field stddev 47415.901219949
field sum 13489606131
field sqrsum 1.4771433470921e+015
field min 1
field max 164253
statistic Basic.rack[13].node[8].app 	"End-to-End Delay"
field count 164253
field mean 0.00047003700015347
field stddev 0.00042450883828324
field sum 77.204987386208
field sqrsum 0.065888684641868
field min 8.992e-006
field max 0.001662337315
statistic Basic.rack[13].node[8].app 	hops
field count 164253
field mean 4.0866589955739
field stddev 1.2580899980055
field sum 671246
field sqrsum 3003130
field min 3
field max 6
statistic Basic.rack[13].node[9].app 	throughput
field count 163080
field mean 81540.5
field stddev 47077.285287068
field sum 13297624740
field sqrsum 1.4457221942744e+015
field min 1
field max 163080
statistic Basic.rack[13].node[9].app 	"End-to-End Delay"
field count 163080
field mean 0.000471751914489
field stddev 0.00042672411009758
field sum 76.933302214866
field sqrsum 0.065989052972235
field min 8.992e-006
field max 0.001652898602
statistic Basic.rack[13].node[9].app 	hops
field count 163080
field mean 4.0905199901889
field stddev 1.2606508055086
field sum 667082
field sqrsum 2987884
field min 3
field max 6
statistic Basic.rack[13].eps.queue[0] 	dropsum
field count 119804
field mean 59902.5
field stddev 34584.580162263
field sum 7176559110
field sqrsum 5.7318938392933e+014
field min 1
field max 119804
statistic Basic.rack[13].eps.queue[1] 	dropsum
field count 187038
field mean 93519.5
field stddev 53993.364161719
field sum 17491700241
field sqrsum 2.1810809170175e+015
field min 1
field max 187038
statistic Basic.rack[13].eps.queue[2] 	dropsum
field count 0
field mean nan
field stddev nan
field sum 0
field sqrsum 0
field min nan
field max nan
statistic Basic.rack[13].eps.queue[3] 	dropsum
field count 0
field mean nan
field stddev nan
field sum 0
field sqrsum 0
field min nan
field max nan
statistic Basic.rack[14].node[0].app 	throughput
field count 172623
field mean 86312
field stddev 49832.112096519
field sum 14899436376
field sqrsum 1.7146619035016e+015
field min 1
field max 172623
statistic Basic.rack[14].node[0].app 	"End-to-End Delay"
field count 172623
field mean 0.00017659151602491
field stddev 0.00019167707145869
field sum 30.483757270769
field sqrsum 0.011725322404961
field min 8.496e-007
field max 0.000419229802
statistic Basic.rack[14].node[0].app 	hops
field count 172623
field mean 4.1944121003574
field stddev 0.82034078783841
field sum 724052
field sqrsum 3153140
field min 3
field max 5
statistic Basic.rack[14].node[1].app 	throughput
field count 171935
field mean 85968
field stddev 49633.503603917
field sum 14780908080
field sqrsum 1.6942418807926e+015
field min 1
field max 171935
statistic Basic.rack[14].node[1].app 	"End-to-End Delay"
field count 171935
field mean 0.00017615646424681
field stddev 0.00019168362430176
field sum 30.287461680276
field sqrsum 0.011652636382207
field min 8.496e-007
field max 0.000419201374
statistic Basic.rack[14].node[1].app 	hops
field count 171935
field mean 4.1971268211824
field stddev 0.81918163401019
field sum 721633
field sqrsum 3144163
field min 3
field max 5
statistic Basic.rack[14].node[2].app 	throughput
field count 171631
field mean 85816
field stddev 49545.746362999
field sum 14728685896
field sqrsum 1.6852709689062e+015
field min 1
field max 171631
statistic Basic.rack[14].node[2].app 	"End-to-End Delay"
field count 171631
field mean 0.00017481350364102
field stddev 0.00019135055538618
field sum 30.003416443412
field sqrsum 0.011529240814721
field min 8.496e-007
field max 0.000419214278
statistic Basic.rack[14].node[2].app 	hops
field count 171631
field mean 4.1967243679755
field stddev 0.81756555605118
field sum 720288
field sqrsum 3137570
field min 3
field max 5
statistic Basic.rack[14].node[3].app 	throughput
field count 171711
field mean 85856
field stddev 49568.840373767
field sum 14742419616
field sqrsum 1.6876286572619e+015
field min 1
field max 171711
statistic Basic.rack[14].node[3].app 	"End-to-End Delay"
field count 171711
field mean 0.00017575956438787
field stddev 0.00019154096965212
field sum 30.179850560606
field sqrsum 0.011604084089844
field min 8.496e-007
field max 0.000419226916
statistic Basic.rack[14].node[3].app 	hops
field count 171711
field mean 4.1936859024757
field stddev 0.81997368697569
field sum 720102
field sqrsum 3135332
field min 3
field max 5
statistic Basic.rack[14].node[4].app 	throughput
field count 172140
field mean 86070.5
field stddev 49692.682006509
field sum 14816175870
field sqrsum 1.7003092815665e+015
field min 1
field max 172140
statistic Basic.rack[14].node[4].app 	"End-to-End Delay"
field count 172140
field mean 0.00017607775656328
field stddev 0.00019152047725564
field sum 30.310025014803
field sqrsum 0.011650995770755
field min 8.496e-007
field max 0.000419189283
statistic Basic.rack[14].node[4].app 	hops
field count 172140
field mean 4.1945799930289
field stddev 0.81982740268997
field sum 722055
field sqrsum 3144415
field min 3
field max 5
statistic Basic.rack[14].node[5].app 	throughput
field count 173136
field mean 86568.5
field stddev 49980.202440566
field sum 14988123816
field sqrsum 1.7299941993793e+015
field min 1
field max 173136
statistic Basic.rack[14].node[5].app 	"End-to-End Delay"
field count 173136
field mean 0.00017604958366812
field stddev 0.00019154097241175
field sum 30.480520717964
field sqrsum 0.011718050186292
field min 8.496e-007
field max 0.00041916023
statistic Basic.rack[14].node[5].app 	hops
field count 173136
field mean 4.1945869143332
field stddev 0.81947998438268
field sum 726234
field sqrsum 3162520
field min 3
field max 5
statistic Basic.rack[14].node[6].app 	throughput
field count 171776
field mean 85888.5
field stddev 49587.604257516
field sum 14753582976
field sqrsum 1.6895458973846e+015
field min 1
field max 171776
statistic Basic.rack[14].node[6].app 	"End-to-End Delay"
field count 171776
field mean 0.00017530968919256
field stddev 0.000191481212906
field sum 30.113997170741
field sqrsum 0.0115774152891
field min 8.496e-007
field max 0.000419170556
statistic Basic.rack[14].node[6].app 	hops
field count 171776
field mean 4.1965000931446
field stddev 0.81802334556733
field sum 720858
field sqrsum 3140026
field min 3
field max 5
statistic Basic.rack[14].node[7].app 	throughput
field count 171537
field mean 85769
field stddev 49518.610900347
field sum 14712556953
field sqrsum 1.6825034922168e+015
field min 1
field max 171537
statistic Basic.rack[14].node[7].app 	"End-to-End Delay"
field count 171537
field mean 0.00017526002413559
field stddev 0.00019145333124644
field sum 30.063578760146
field sqrsum 0.011556488931494
field min 8.496e-007
field max 0.000419464565
statistic Basic.rack[14].node[7].app 	hops
field count 171537
field mean 4.1962608650029
field stddev 0.8183770152185
field sum 719814
field sqrsum 3135412
field min 3
field max 5
statistic Basic.rack[14].node[8].app 	throughput
field count 172545
field mean 86273
field stddev 49809.59543602
field sum 14885974785
field sqrsum 1.7123386415101e+015
field min 1
field max 172545
statistic Basic.rack[14].node[8].app 	"End-to-End Delay"
field count 172545
field mean 0.00017571911621109
field stddev 0.00019150730337203
field sum 30.319454906642
field sqrsum 0.011655767172009
field min 8.496e-007
field max 0.000419164463
statistic Basic.rack[14].node[8].app 	hops
field count 172545
field mean 4.1940189515778
field stddev 0.81950242185978
field sum 723657
field sqrsum 3150909
field min 3
field max 5
statistic Basic.rack[14].node[9].app 	throughput
field count 172017
field mean 86009
field stddev 49657.174964953
field sum 14795010153
field sqrsum 1.6966671059958e+015
field min 1
field max 172017
statistic Basic.rack[14].node[9].app 	"End-to-End Delay"
field count 172017
field mean 0.00017586423117581
field stddev 0.00019146773548465
field sum 30.251637454169
field sqrsum 0.011626269242825
field min 8.496e-007
field max 0.000419173995
statistic Basic.rack[14].node[9].app 	hops
field count 172017
field mean 4.1973351471076
field stddev 0.81980466035675
field sum 722013
field sqrsum 3146139
field min 3
field max 5
statistic Basic.rack[14].eps.queue[0] 	dropsum
field count 68
field mean 34.5
field stddev 19.773719933285
field sum 2346
field sqrsum 107134
field min 1
field max 68
statistic Basic.rack[14].eps.queue[1] 	dropsum
field count 560060
field mean 280030.5
field stddev 161675.54021749
field sum 156833881830
field sqrsum 5.855764151622e+016
field min 1
field max 560060
statistic Basic.rack[14].eps.queue[2] 	dropsum
field count 0
field mean nan
field stddev nan
field sum 0
field sqrsum 0
field min nan
field max nan
statistic Basic.rack[14].eps.queue[3] 	dropsum
field count 0
field mean nan
field stddev nan
field sum 0
field sqrsum 0
field min nan
field max nan
statistic Basic.rack[15].node[0].app 	throughput
field count 176334
field mean 88167.5
field stddev 50903.385521004
field sum 15546927945
field sqrsum 1.8276398438117e+015
field min 1
field max 176334
statistic Basic.rack[15].node[0].app 	"End-to-End Delay"
field count 176334
field mean 0.00018118365765035
field stddev 0.0001929051604006
field sum 31.948839088118
field sqrsum 0.012350381813187
field min 8.496e-007
field max 0.000419215291
statistic Basic.rack[15].node[0].app 	hops
field count 176334
field mean 4.2455170301814
field stddev 0.80866777369039
field sum 748629
field sqrsum 3293629
field min 3
field max 5
statistic Basic.rack[15].node[1].app 	throughput
field count 175372
field mean 87686.5
field stddev 50625.680041523
field sum 15377756878
field sqrsum 1.7978904453914e+015
field min 1
field max 175372
statistic Basic.rack[15].node[1].app 	"End-to-End Delay"
field count 175372
field mean 0.0001822369689729
field stddev 0.00019308504918696
field sum 31.959261722716
field sqrsum 0.012362311886615
field min 8.496e-007
field max 0.000419214048
statistic Basic.rack[15].node[1].app 	hops
field count 175372
field mean 4.2436477887006
field stddev 0.81024375173648
field sum 744217
field sqrsum 3273325
field min 3
field max 5
statistic Basic.rack[15].node[2].app 	throughput
field count 175897
field mean 87949
field stddev 50777.234487186
field sum 15469965253
field sqrsum 1.814085475393e+015
field min 1
field max 175897
statistic Basic.rack[15].node[2].app 	"End-to-End Delay"
field count 175897
field mean 0.00018239436648116
field stddev 0.00019305451104229
field sum 32.082621880936
field sqrsum 0.012407341193572
field min 8.496e-007
field max 0.000419137582
statistic Basic.rack[15].node[2].app 	hops
field count 175897
field mean 4.2495551373815
field stddev 0.80986018200884
field sum 747484
field sqrsum 3291840
field min 3
field max 5
statistic Basic.rack[15].node[3].app 	throughput
field count 176689
field mean 88345
field stddev 51005.865193786
field sum 15609589705
field sqrsum 1.8387004001211e+015
field min 1
field max 176689
statistic Basic.rack[15].node[3].app 	"End-to-End Delay"
field count 176689
field mean 0.00018192860405617
field stddev 0.00019306550809172
field sum 32.14478312208
field sqrsum 0.012433975345884
field min 8.496e-007
field max 0.000419219294
statistic Basic.rack[15].node[3].app 	hops
field count 176689
field mean 4.2536434073428
field stddev 0.80853036139008
field sum 751572
field sqrsum 3312424
field min 3
field max 5
statistic Basic.rack[15].node[4].app 	throughput
field count 177200
field mean 88600.5
field stddev 51153.378187565
field sum 15700008600
field sqrsum 1.8546995826162e+015
field min 1
field max 177200
statistic Basic.rack[15].node[4].app 	"End-to-End Delay"
field count 177200
field mean 0.0001819094773649
field stddev 0.00019294190195985
field sum 32.23435938906
field sqrsum 0.012460247781729
field min 8.496e-007
field max 0.000419392642
statistic Basic.rack[15].node[4].app 	hops
field count 177200
field mean 4.2515970654628
field stddev 0.80884187702521
field sum 753383
field sqrsum 3319009
field min 3
field max 5
statistic Basic.rack[15].node[5].app 	throughput
field count 176529
field mean 88265
field stddev 50959.677172251
field sum 15581332185
field sqrsum 1.8337098533013e+015
field min 1
field max 176529
statistic Basic.rack[15].node[5].app 	"End-to-End Delay"
field count 176529
field mean 0.00018337985765796
field stddev 0.00019323829740959
field sum 32.371862892502
field sqrsum 0.012528086645345
field min 8.496e-007
field max 0.000419269126
statistic Basic.rack[15].node[5].app 	hops
field count 176529
field mean 4.2459255986269
field stddev 0.81086189261697
field sum 749529
field sqrsum 3298511
field min 3
field max 5
statistic Basic.rack[15].node[6].app 	throughput
field count 176460
field mean 88230.5
field stddev 50939.758587963
field sum 15569154030
field sqrsum 1.8315604698072e+015
field min 1
field max 176460
statistic Basic.rack[15].node[6].app 	"End-to-End Delay"
field count 176460
field mean 0.00018231233874895
field stddev 0.00019302736637802
field sum 32.17083529564
field sqrsum 0.012439925656277
field min 8.496e-007
field max 0.000419187754
statistic Basic.rack[15].node[6].app 	hops
field count 176460
field mean 4.2488439306358
field stddev 0.80982949605509
field sum 749751
field sqrsum 3301301
field min 3
field max 5
statistic Basic.rack[15].node[7].app 	throughput
field count 175923
field mean 87962
field stddev 50784.740040685
field sum 15474538926
field sqrsum 1.8148900324988e+015
field min 1
field max 175923
statistic Basic.rack[15].node[7].app 	"End-to-End Delay"
field count 175923
field mean 0.00018112236249695
field stddev 0.00019286873572927
field sum 31.863589377551
field sqrsum 0.012315216577493
field min 8.496e-007
field max 0.000419220741
statistic Basic.rack[15].node[7].app 	hops
field count 175923
field mean 4.2500127896864
field stddev 0.80813206163226
field sum 747675
field sqrsum 3292519
field min 3
field max 5
statistic Basic.rack[15].node[8].app 	throughput
field count 176045
field mean 88023
field stddev 50819.958407106
field sum 15496009035
field sqrsum 1.8186684390474e+015
field min 1
field max 176045
statistic Basic.rack[15].node[8].app 	"End-to-End Delay"
field count 176045
field mean 0.00018203570674001
field stddev 0.00019293177547667
field sum 32.046475993045
field sqrsum 0.01238643062139
field min 8.496e-007
field max 0.000419227518
statistic Basic.rack[15].node[8].app 	hops
field count 176045
field mean 4.2488057030873
field stddev 0.80937067948869
field sum 747981
field sqrsum 3293349
field min 3
field max 5
statistic Basic.rack[15].node[9].app 	throughput
field count 176242
field mean 88121.5
field stddev 50876.827408622
field sum 15530709403
field sqrsum 1.8247807013055e+015
field min 1
field max 176242
statistic Basic.rack[15].node[9].app 	"End-to-End Delay"
field count 176242
field mean 0.00018241195020858
field stddev 0.00019309325363854
field sum 32.148646928661
field sqrsum 0.012435443878659
field min 8.496e-007
field max 0.000419197086
statistic Basic.rack[15].node[9].app 	hops
field count 176242
field mean 4.24592321921
field stddev 0.81018727705894
field sum 748310
field sqrsum 3292952
field min 3
field max 5
statistic Basic.rack[15].eps.queue[0] 	dropsum
field count 589116
field mean 294558.5
field stddev 170063.28492818
field sum 173529125286
field sqrsum 6.8152580624109e+016
field min 1
field max 589116
statistic Basic.rack[15].eps.queue[1] 	dropsum
field count 0
field mean nan
field stddev nan
field sum 0
field sqrsum 0
field min nan
field max nan
statistic Basic.rack[15].eps.queue[2] 	dropsum
field count 0
field mean nan
field stddev nan
field sum 0
field sqrsum 0
field min nan
field max nan
statistic Basic.rack[15].eps.queue[3] 	dropsum
field count 0
field mean nan
field stddev nan
field sum 0
field sqrsum 0
field min nan
field max nan
