version 2
run Basic-35-20180510-16:53:29-21004
attr configname Basic
attr datetime 20180510-16:53:29
attr experiment Basic
attr inifile omnetpp.ini
attr iterationvars "$0=exponential(0.1 ms), $1=4, $2=5"
attr iterationvarsf exponential(0.1_ms),4,5-
attr measurement "$0=exponential(0.1 ms), $1=4, $2=5"
attr network Networks.Basic
attr processid 21004
attr repetition 0
attr replication #0
attr resultdir results
attr runnumber 35
attr seedset 35
param **.frameCapacity 50
param **.packetLength "1024 bytes"
param **.pattern 4
param **.sendIaTime "exponential(0.1 ms)"
param **.tp 5

statistic Basic.rack[0].node[0].app 	throughput
field count 34406
field mean 17203.5
field stddev 9932.3010173877
field sum 591903621
field sqrsum 13576887957291
field min 1
field max 34406
statistic Basic.rack[0].node[0].app 	"End-to-End Delay"
field count 34406
field mean 0.00043300553208603
field stddev 1.6852830784594e-005
field sum 14.897988336952
field sqrsum 0.0064606830028906
field min 0.000374693366
field max 0.000617459084
statistic Basic.rack[0].node[0].app 	hops
field count 34406
field mean 5.2285357205139
field stddev 0.79826915707214
field sum 179893
field sqrsum 962501
field min 4
field max 6
statistic Basic.rack[0].node[1].app 	throughput
field count 34655
field mean 17328
field stddev 10004.181125909
field sum 600501840
field sqrsum 13873794344080
field min 1
field max 34655
statistic Basic.rack[0].node[1].app 	"End-to-End Delay"
field count 34655
field mean 0.00043313491017997
field stddev 1.7137864766496e-005
field sum 15.010290312287
field sqrsum 0.0065116588480768
field min 0.000341753224
field max 0.000616124176
statistic Basic.rack[0].node[1].app 	hops
field count 34655
field mean 5.2357812725436
field stddev 0.79721537394673
field sum 181446
field sqrsum 972036
field min 4
field max 6
statistic Basic.rack[0].node[2].app 	throughput
field count 34439
field mean 17220
field stddev 9941.8272968303
field sum 593039580
field sqrsum 13615991076940
field min 1
field max 34439
statistic Basic.rack[0].node[2].app 	"End-to-End Delay"
field count 34439
field mean 0.00043304823433265
field stddev 1.7241545768247e-005
field sum 14.913748142182
field sqrsum 0.0064686097155244
field min 5.6011838e-005
field max 0.000617246868
statistic Basic.rack[0].node[2].app 	hops
field count 34439
field mean 5.2327012979471
field stddev 0.79531870875055
field sum 180209
field sqrsum 964763
field min 4
field max 6
statistic Basic.rack[0].node[3].app 	throughput
field count 34324
field mean 17162.5
field stddev 9908.6296563484
field sum 589085650
field sqrsum 13480046928950
field min 1
field max 34324
statistic Basic.rack[0].node[3].app 	"End-to-End Delay"
field count 34324
field mean 0.00043322887135794
field stddev 1.7366568412333e-005
field sum 14.87014778049
field sqrsum 0.0064525290776704
field min 7.5627861e-005
field max 0.000664522746
statistic Basic.rack[0].node[3].app 	hops
field count 34324
field mean 5.2208367323156
field stddev 0.79384592082371
field sum 179200
field sqrsum 957204
field min 4
field max 6
statistic Basic.rack[0].node[4].app 	throughput
field count 34555
field mean 17278
field stddev 9975.3136124468
field sum 597041290
field sqrsum 13754040197730
field min 1
field max 34555
statistic Basic.rack[0].node[4].app 	"End-to-End Delay"
field count 34555
field mean 0.00043305553256698
field stddev 1.7285267043858e-005
field sum 14.964233927852
field sqrsum 0.0064906683529863
field min 8.2282439e-005
field max 0.000621553824
statistic Basic.rack[0].node[4].app 	hops
field count 34555
field mean 5.2376501229923
field stddev 0.79520792987315
field sum 180987
field sqrsum 969797
field min 4
field max 6
statistic Basic.rack[0].node[5].app 	throughput
field count 34111
field mean 17056
field stddev 9847.1418526731
field sum 581797216
field sqrsum 13230650489056
field min 1
field max 34111
statistic Basic.rack[0].node[5].app 	"End-to-End Delay"
field count 34111
field mean 0.00043313855983932
field stddev 1.7032086241624e-005
field sum 14.774789414679
field sqrsum 0.0064094260458182
field min 0.000152359562
field max 0.00064721073
statistic Basic.rack[0].node[5].app 	hops
field count 34111
field mean 5.2226847644455
field stddev 0.7962917303147
field sum 178151
field sqrsum 952055
field min 4
field max 6
statistic Basic.rack[0].node[6].app 	throughput
field count 34069
field mean 17035
field stddev 9835.0174970188
field sum 580365415
field sqrsum 13181839670895
field min 1
field max 34069
statistic Basic.rack[0].node[6].app 	"End-to-End Delay"
field count 34069
field mean 0.00043294536728915
field stddev 1.6903565944888e-005
field sum 14.750015718174
field sqrsum 0.0063956852407186
field min 0.000306151191
field max 0.000656145833
statistic Basic.rack[0].node[6].app 	hops
field count 34069
field mean 5.2344947019284
field stddev 0.79658227447996
field sum 178334
field sqrsum 955106
field min 4
field max 6
statistic Basic.rack[0].node[7].app 	throughput
field count 34836
field mean 17418.5
field stddev 10056.431325276
field sum 606790866
field sqrsum 14092313335606
field min 1
field max 34836
statistic Basic.rack[0].node[7].app 	"End-to-End Delay"
field count 34836
field mean 0.00043316032971851
field stddev 1.7256722486073e-005
field sum 15.089573246074
field sqrsum 0.0065465781929769
field min 4.2529312e-005
field max 0.000632376577
statistic Basic.rack[0].node[7].app 	hops
field count 34836
field mean 5.2299919623378
field stddev 0.79645591451254
field sum 182192
field sqrsum 974960
field min 4
field max 6
statistic Basic.rack[0].node[8].app 	throughput
field count 34201
field mean 17101
field stddev 9873.1226147894
field sum 584871301
field sqrsum 13335650534101
field min 1
field max 34201
statistic Basic.rack[0].node[8].app 	"End-to-End Delay"
field count 34201
field mean 0.00043311736850592
field stddev 1.6966562527331e-005
field sum 14.813047120271
field sqrsum 0.0064256329454307
field min 0.000375357683
field max 0.000606038866
statistic Basic.rack[0].node[8].app 	hops
field count 34201
field mean 5.2275956843367
field stddev 0.79792118785074
field sum 178789
field sqrsum 956411
field min 4
field max 6
statistic Basic.rack[0].node[9].app 	throughput
field count 34426
field mean 17213.5
field stddev 9938.0745200802
field sum 592591951
field sqrsum 13600577867401
field min 1
field max 34426
statistic Basic.rack[0].node[9].app 	"End-to-End Delay"
field count 34426
field mean 0.00043313559657945
field stddev 1.6977804751561e-005
field sum 14.911126047844
field sqrsum 0.0064684623399344
field min 2.134667e-005
field max 0.000589240259
statistic Basic.rack[0].node[9].app 	hops
field count 34426
field mean 5.2245976877941
field stddev 0.79762557358826
field sum 179862
field sqrsum 961608
field min 4
field max 6
statistic Basic.rack[0].eps.queue[0] 	dropsum
field count 0
field mean nan
field stddev nan
field sum 0
field sqrsum 0
field min nan
field max nan
statistic Basic.rack[0].eps.queue[1] 	dropsum
field count 0
field mean nan
field stddev nan
field sum 0
field sqrsum 0
field min nan
field max nan
statistic Basic.rack[0].eps.queue[2] 	dropsum
field count 0
field mean nan
field stddev nan
field sum 0
field sqrsum 0
field min nan
field max nan
statistic Basic.rack[0].eps.queue[3] 	dropsum
field count 0
field mean nan
field stddev nan
field sum 0
field sqrsum 0
field min nan
field max nan
statistic Basic.rack[1].node[0].app 	throughput
field count 51845
field mean 25923
field stddev 14966.506689939
field sum 1343977935
field sqrsum 46452805352695
field min 1
field max 51845
statistic Basic.rack[1].node[0].app 	"End-to-End Delay"
field count 51845
field mean 0.00023140168165004
field stddev 0.00020370965201769
field sum 11.997020185147
field sqrsum 0.0049275333774584
field min 1.80336e-005
field max 0.000595514597
statistic Basic.rack[1].node[0].app 	hops
field count 51845
field mean 5.9962773652233
field stddev 0.55487892769668
field sum 310877
field sqrsum 1880067
field min 5
field max 7
statistic Basic.rack[1].node[1].app 	throughput
field count 51485
field mean 25743
field stddev 14862.58364148
field sum 1325378355
field sqrsum 45491844864235
field min 1
field max 51485
statistic Basic.rack[1].node[1].app 	"End-to-End Delay"
field count 51485
field mean 0.00022991006391127
field stddev 0.00020369246098443
field sum 11.836919640472
field sqrsum 0.0048575299622423
field min 1.80336e-005
field max 0.000616059051
statistic Basic.rack[1].node[1].app 	hops
field count 51485
field mean 6.0038263571914
field stddev 0.55148717590766
field sum 309107
field sqrsum 1871483
field min 5
field max 7
statistic Basic.rack[1].node[2].app 	throughput
field count 51312
field mean 25656.5
field stddev 14812.642843193
field sum 1316486328
field sqrsum 45034803137000
field min 1
field max 51312
statistic Basic.rack[1].node[2].app 	"End-to-End Delay"
field count 51312
field mean 0.00023044622080682
field stddev 0.00020370297720276
field sum 11.82465648204
field sqrsum 0.0048540923624182
field min 1.80336e-005
field max 0.000657492282
statistic Basic.rack[1].node[2].app 	hops
field count 51312
field mean 5.9989476145931
field stddev 0.55434774301558
field sum 307818
field sqrsum 1862352
field min 5
field max 7
statistic Basic.rack[1].node[3].app 	throughput
field count 51363
field mean 25682
field stddev 14827.365275058
field sum 1319104566
field sqrsum 45169218250494
field min 1
field max 51363
statistic Basic.rack[1].node[3].app 	"End-to-End Delay"
field count 51363
field mean 0.00023172601696964
field stddev 0.00020366233666195
field sum 11.902143409612
field sqrsum 0.0048884471635652
field min 1.80336e-005
field max 0.00064347158
statistic Basic.rack[1].node[3].app 	hops
field count 51363
field mean 6.0019858653116
field stddev 0.55431581466254
field sum 308280
field sqrsum 1866074
field min 5
field max 7
statistic Basic.rack[1].node[4].app 	throughput
field count 51713
field mean 25857
field stddev 14928.401572171
field sum 1337143041
field sqrsum 46098897767169
field min 1
field max 51713
statistic Basic.rack[1].node[4].app 	"End-to-End Delay"
field count 51713
field mean 0.00023127529999937
field stddev 0.00020353876661645
field sum 11.959939588868
field sqrsum 0.0049083648787081
field min 1.80336e-005
field max 0.000626777327
statistic Basic.rack[1].node[4].app 	hops
field count 51713
field mean 5.9958811130663
field stddev 0.55766837668389
field sum 310065
field sqrsum 1875195
field min 5
field max 7
statistic Basic.rack[1].node[5].app 	throughput
field count 51720
field mean 25860.5
field stddev 14930.422298113
field sum 1337505060
field sqrsum 46117620303820
field min 1
field max 51720
statistic Basic.rack[1].node[5].app 	"End-to-End Delay"
field count 51720
field mean 0.00022990395556666
field stddev 0.00020358781109534
field sum 11.890632581908
field sqrsum 0.0048773524126448
field min 1.80336e-005
field max 0.000617966077
statistic Basic.rack[1].node[5].app 	hops
field count 51720
field mean 5.999535962877
field stddev 0.554429122844
field sum 310296
field sqrsum 1877530
field min 5
field max 7
statistic Basic.rack[1].node[6].app 	throughput
field count 51560
field mean 25780.5
field stddev 14884.234276576
field sum 1329242580
field sqrsum 45690941364060
field min 1
field max 51560
statistic Basic.rack[1].node[6].app 	"End-to-End Delay"
field count 51560
field mean 0.00023054189955505
field stddev 0.00020382100273515
field sum 11.886740341059
field sqrsum 0.0048823072943455
field min 1.80336e-005
field max 0.000640979542
statistic Basic.rack[1].node[6].app 	hops
field count 51560
field mean 6.0001745539178
field stddev 0.55014810566629
field sum 309369
field sqrsum 1871873
field min 5
field max 7
statistic Basic.rack[1].node[7].app 	throughput
field count 51675
field mean 25838
field stddev 14917.431917056
field sum 1335178650
field sqrsum 45997349552050
field min 1
field max 51675
statistic Basic.rack[1].node[7].app 	"End-to-End Delay"
field count 51675
field mean 0.00022913772746637
field stddev 0.00020366468275218
field sum 11.840692066825
field sqrsum 0.0048565507750715
field min 1.80336e-005
field max 0.000606006579
statistic Basic.rack[1].node[7].app 	hops
field count 51675
field mean 5.9977745524915
field stddev 0.55283147127298
field sum 309935
field sqrsum 1874713
field min 5
field max 7
statistic Basic.rack[1].node[8].app 	throughput
field count 52003
field mean 26002
field stddev 15012.117361207
field sum 1352182006
field sqrsum 46878797966014
field min 1
field max 52003
statistic Basic.rack[1].node[8].app 	"End-to-End Delay"
field count 52003
field mean 0.00022886505906737
field stddev 0.00020369846305472
field sum 11.901669666681
field sqrsum 0.0048815986376374
field min 1.80336e-005
field max 0.000629747292
statistic Basic.rack[1].node[8].app 	hops
field count 52003
field mean 5.9996730957829
field stddev 0.5515779107783
field sum 312001
field sqrsum 1887725
field min 5
field max 7
statistic Basic.rack[1].node[9].app 	throughput
field count 51361
field mean 25681
field stddev 14826.787924789
field sum 1319001841
field sqrsum 45163942037681
field min 1
field max 51361
statistic Basic.rack[1].node[9].app 	"End-to-End Delay"
field count 51361
field mean 0.00022943482638295
field stddev 0.00020377231803988
field sum 11.784002117855
field sqrsum 0.0048362898543087
field min 1.80336e-005
field max 0.000611179891
statistic Basic.rack[1].node[9].app 	hops
field count 51361
field mean 5.9952103736298
field stddev 0.55163347336716
field sum 307920
field sqrsum 1861674
field min 5
field max 7
statistic Basic.rack[1].eps.queue[0] 	dropsum
field count 0
field mean nan
field stddev nan
field sum 0
field sqrsum 0
field min nan
field max nan
statistic Basic.rack[1].eps.queue[1] 	dropsum
field count 0
field mean nan
field stddev nan
field sum 0
field sqrsum 0
field min nan
field max nan
statistic Basic.rack[1].eps.queue[2] 	dropsum
field count 0
field mean nan
field stddev nan
field sum 0
field sqrsum 0
field min nan
field max nan
statistic Basic.rack[1].eps.queue[3] 	dropsum
field count 0
field mean nan
field stddev nan
field sum 0
field sqrsum 0
field min nan
field max nan
statistic Basic.rack[2].node[0].app 	throughput
field count 51925
field mean 25963
field stddev 14989.600700708
field sum 1348128775
field sqrsum 46668173804175
field min 1
field max 51925
statistic Basic.rack[2].node[0].app 	"End-to-End Delay"
field count 51925
field mean 0.00023114820775753
field stddev 0.00020349710054356
field sum 12.00237068781
field sqrsum 0.004924554868355
field min 1.80336e-005
field max 0.000627305931
statistic Basic.rack[2].node[0].app 	hops
field count 51925
field mean 6.0015792007703
field stddev 0.55294852422282
field sum 311632
field sqrsum 1886160
field min 5
field max 7
statistic Basic.rack[2].node[1].app 	throughput
field count 52064
field mean 26032.5
field stddev 15029.726544419
field sum 1355356080
field sqrsum 47043957751440
field min 1
field max 52064
statistic Basic.rack[2].node[1].app 	"End-to-End Delay"
field count 52064
field mean 0.00023142353964721
field stddev 0.00020338636588803
field sum 12.048835168193
field sqrsum 0.0049420228612355
field min 1.80336e-005
field max 0.000597276131
statistic Basic.rack[2].node[1].app 	hops
field count 52064
field mean 6.0002496926859
field stddev 0.55420848774103
field sum 312397
field sqrsum 1890451
field min 5
field max 7
statistic Basic.rack[2].node[2].app 	throughput
field count 51570
field mean 25785.5
field stddev 14887.121027922
field sum 1329758235
field sqrsum 45717531372045
field min 1
field max 51570
statistic Basic.rack[2].node[2].app 	"End-to-End Delay"
field count 51570
field mean 0.00022899793549571
field stddev 0.00020357776585633
field sum 11.809423533514
field sqrsum 0.0048415544358142
field min 1.80336e-005
field max 0.000590174717
statistic Basic.rack[2].node[2].app 	hops
field count 51570
field mean 6.0039170060112
field stddev 0.55168248165514
field sum 309622
field sqrsum 1874640
field min 5
field max 7
statistic Basic.rack[2].node[3].app 	throughput
field count 51570
field mean 25785.5
field stddev 14887.121027922
field sum 1329758235
field sqrsum 45717531372045
field min 1
field max 51570
statistic Basic.rack[2].node[3].app 	"End-to-End Delay"
field count 51570
field mean 0.00023079570328902
field stddev 0.00020343556478185
field sum 11.902134418615
field sqrsum 0.0048811976142196
field min 1.80336e-005
field max 0.000611688117
statistic Basic.rack[2].node[3].app 	hops
field count 51570
field mean 6.0013767694396
field stddev 0.5543420640691
field sum 309491
field sqrsum 1873219
field min 5
field max 7
statistic Basic.rack[2].node[4].app 	throughput
field count 51636
field mean 25818.5
field stddev 14906.173586806
field sum 1333164066
field sqrsum 45893284196006
field min 1
field max 51636
statistic Basic.rack[2].node[4].app 	"End-to-End Delay"
field count 51636
field mean 0.0002291032666154
field stddev 0.00020352937407908
field sum 11.829976274953
field sqrsum 0.0048492250912202
field min 1.80336e-005
field max 0.000617844564
statistic Basic.rack[2].node[4].app 	hops
field count 51636
field mean 6.0029243163684
field stddev 0.55202047830463
field sum 309967
field sqrsum 1876443
field min 5
field max 7
statistic Basic.rack[2].node[5].app 	throughput
field count 51431
field mean 25716
field stddev 14846.995184212
field sum 1322599596
field sqrsum 45348854081116
field min 1
field max 51431
statistic Basic.rack[2].node[5].app 	"End-to-End Delay"
field count 51431
field mean 0.00022995229305906
field stddev 0.00020347706546956
field sum 11.826676384321
field sqrsum 0.0048489233325734
field min 1.80336e-005
field max 0.000620289689
statistic Basic.rack[2].node[5].app 	hops
field count 51431
field mean 6.0068246777236
field stddev 0.55354204818414
field sum 308937
field sqrsum 1871489
field min 5
field max 7
statistic Basic.rack[2].node[6].app 	throughput
field count 51363
field mean 25682
field stddev 14827.365275058
field sum 1319104566
field sqrsum 45169218250494
field min 1
field max 51363
statistic Basic.rack[2].node[6].app 	"End-to-End Delay"
field count 51363
field mean 0.00023022131201709
field stddev 0.00020346394220544
field sum 11.824857249134
field sqrsum 0.0048485964374086
field min 1.80336e-005
field max 0.000646927052
statistic Basic.rack[2].node[6].app 	hops
field count 51363
field mean 6.0006814243716
field stddev 0.55503851874824
field sum 308213
field sqrsum 1865311
field min 5
field max 7
statistic Basic.rack[2].node[7].app 	throughput
field count 51624
field mean 25812.5
field stddev 14902.709485191
field sum 1332544500
field sqrsum 45861295693500
field min 1
field max 51624
statistic Basic.rack[2].node[7].app 	"End-to-End Delay"
field count 51624
field mean 0.00022967135125788
field stddev 0.00020344935365233
field sum 11.856553837337
field sqrsum 0.0048598713470715
field min 9.4416e-006
field max 0.000602442563
statistic Basic.rack[2].node[7].app 	hops
field count 51624
field mean 5.997636758097
field stddev 0.55284118366678
field sum 309622
field sqrsum 1872778
field min 5
field max 7
statistic Basic.rack[2].node[8].app 	throughput
field count 51354
field mean 25677.5
field stddev 14824.767198847
field sum 1318642335
field sqrsum 45145478528505
field min 1
field max 51354
statistic Basic.rack[2].node[8].app 	"End-to-End Delay"
field count 51354
field mean 0.00023042939418415
field stddev 0.00020359782538716
field sum 11.833471108933
field sqrsum 0.0048554679606477
field min 1.80336e-005
field max 0.000612753844
statistic Basic.rack[2].node[8].app 	hops
field count 51354
field mean 6.0013436149083
field stddev 0.55248384125409
field sum 308193
field sqrsum 1865247
field min 5
field max 7
statistic Basic.rack[2].node[9].app 	throughput
field count 51709
field mean 25855
field stddev 14927.246871633
field sum 1336936195
field sqrsum 46088201450235
field min 1
field max 51709
statistic Basic.rack[2].node[9].app 	"End-to-End Delay"
field count 51709
field mean 0.00022883889045629
field stddev 0.00020350750592593
field sum 11.833030186605
field sqrsum 0.0048493600879337
field min 1.80336e-005
field max 0.000622621527
statistic Basic.rack[2].node[9].app 	hops
field count 51709
field mean 5.9962675743101
field stddev 0.55057301953361
field sum 310061
field sqrsum 1874883
field min 5
field max 7
statistic Basic.rack[2].eps.queue[0] 	dropsum
field count 0
field mean nan
field stddev nan
field sum 0
field sqrsum 0
field min nan
field max nan
statistic Basic.rack[2].eps.queue[1] 	dropsum
field count 2779314
field mean 1389657.5
field stddev 802318.98737109
field sum 3862294544955
field sqrsum 7.1563541547197e+018
field min 1
field max 2779314
statistic Basic.rack[2].eps.queue[2] 	dropsum
field count 0
field mean nan
field stddev nan
field sum 0
field sqrsum 0
field min nan
field max nan
statistic Basic.rack[2].eps.queue[3] 	dropsum
field count 0
field mean nan
field stddev nan
field sum 0
field sqrsum 0
field min nan
field max nan
statistic Basic.rack[3].node[0].app 	throughput
field count 30279
field mean 15140
field stddev 8740.9387367719
field sum 458424060
field sqrsum 9253900883180
field min 1
field max 30279
statistic Basic.rack[3].node[0].app 	"End-to-End Delay"
field count 30279
field mean 0.00042489700926173
field stddev 1.7196633133215e-005
field sum 12.865456543436
field sqrsum 0.0054754479451514
field min 0.000136907361
field max 0.000601804477
statistic Basic.rack[3].node[0].app 	hops
field count 30279
field mean 4.2242148023383
field stddev 0.79902687253026
field sum 127905
field sqrsum 559629
field min 3
field max 5
statistic Basic.rack[3].node[1].app 	throughput
field count 30452
field mean 15226.5
field stddev 8790.8795350636
field sum 463677378
field sqrsum 9413423569030
field min 1
field max 30452
statistic Basic.rack[3].node[1].app 	"End-to-End Delay"
field count 30452
field mean 0.0004248697150688
field stddev 1.7487567379238e-005
field sum 12.938132563275
field sqrsum 0.0055063330686371
field min 0.000185353232
field max 0.000640638759
statistic Basic.rack[3].node[1].app 	hops
field count 30452
field mean 4.2364705109681
field stddev 0.79855242934637
field sum 129009
field sqrsum 565961
field min 3
field max 5
statistic Basic.rack[3].node[2].app 	throughput
field count 30416
field mean 15208.5
field stddev 8780.4872302168
field sum 462581736
field sqrsum 9380078248696
field min 1
field max 30416
statistic Basic.rack[3].node[2].app 	"End-to-End Delay"
field count 30416
field mean 0.00042468613376716
field stddev 1.7220597569819e-005
field sum 12.917253444662
field sqrsum 0.0054947979615508
field min 4.6145623e-005
field max 0.00058312812
statistic Basic.rack[3].node[2].app 	hops
field count 30416
field mean 4.2409258285113
field stddev 0.79676510870958
field sum 128992
field sqrsum 566354
field min 3
field max 5
statistic Basic.rack[3].node[3].app 	throughput
field count 30786
field mean 15393.5
field stddev 8887.2970300311
field sum 473904291
field sqrsum 9726569636581
field min 1
field max 30786
statistic Basic.rack[3].node[3].app 	"End-to-End Delay"
field count 30786
field mean 0.00042478037528552
field stddev 1.7069809666017e-005
field sum 13.07728863354
field sqrsum 0.0055639456575789
field min 0.000268954919
field max 0.000658694602
statistic Basic.rack[3].node[3].app 	hops
field count 30786
field mean 4.2372182160722
field stddev 0.79683056119377
field sum 130447
field sqrsum 572279
field min 3
field max 5
statistic Basic.rack[3].node[4].app 	throughput
field count 30454
field mean 15227.5
field stddev 8791.4568853329
field sum 463738285
field sqrsum 9415278400355
field min 1
field max 30454
statistic Basic.rack[3].node[4].app 	"End-to-End Delay"
field count 30454
field mean 0.0004247445603057
field stddev 1.7100486619676e-005
field sum 12.93517083955
field sqrsum 0.0055030487192718
field min 0.000381814565
field max 0.000636791836
statistic Basic.rack[3].node[4].app 	hops
field count 30454
field mean 4.2341564326525
field stddev 0.79932881735996
field sum 128947
field sqrsum 565439
field min 3
field max 5
statistic Basic.rack[3].node[5].app 	throughput
field count 30487
field mean 15244
field stddev 8800.9831647758
field sum 464743828
field sqrsum 9445918304100
field min 1
field max 30487
statistic Basic.rack[3].node[5].app 	"End-to-End Delay"
field count 30487
field mean 0.00042462618364372
field stddev 1.6908370640382e-005
field sum 12.945578460746
field sqrsum 0.0055057473107752
field min 0.000397118401
field max 0.000612484612
statistic Basic.rack[3].node[5].app 	hops
field count 30487
field mean 4.2363958408502
field stddev 0.80180729674921
field sum 129155
field sqrsum 566751
field min 3
field max 5
statistic Basic.rack[3].node[6].app 	throughput
field count 30558
field mean 15279.5
field stddev 8821.4790993348
field sum 466910961
field sqrsum 9512065734479
field min 1
field max 30558
statistic Basic.rack[3].node[6].app 	"End-to-End Delay"
field count 30558
field mean 0.00042490092971807
field stddev 1.7075266090016e-005
field sum 12.984122610325
field sqrsum 0.0055258751116065
field min 0.000292940344
field max 0.000594421508
statistic Basic.rack[3].node[6].app 	hops
field count 30558
field mean 4.2342758033903
field stddev 0.7955150389698
field sum 129391
field sqrsum 567215
field min 3
field max 5
statistic Basic.rack[3].node[7].app 	throughput
field count 30239
field mean 15120
field stddev 8729.3917313866
field sum 457213680
field sqrsum 9217275384240
field min 1
field max 30239
statistic Basic.rack[3].node[7].app 	"End-to-End Delay"
field count 30239
field mean 0.00042477162837504
field stddev 1.7398855574561e-005
field sum 12.844669270433
field sqrsum 0.0054652047346015
field min 1.5089554e-005
field max 0.000592525556
statistic Basic.rack[3].node[7].app 	hops
field count 30239
field mean 4.2305631799993
field stddev 0.80111936184828
field sum 127928
field sqrsum 560614
field min 3
field max 5
statistic Basic.rack[3].node[8].app 	throughput
field count 30713
field mean 15357
field stddev 8866.2237452029
field sum 471659541
field sqrsum 9657543541669
field min 1
field max 30713
statistic Basic.rack[3].node[8].app 	"End-to-End Delay"
field count 30713
field mean 0.00042482044297542
field stddev 1.7257004300587e-005
field sum 13.047510265104
field sqrsum 0.0055519952530592
field min 0.00036162575
field max 0.000653155622
statistic Basic.rack[3].node[8].app 	hops
field count 30713
field mean 4.2327027643018
field stddev 0.79804791921302
field sum 129999
field sqrsum 569807
field min 3
field max 5
statistic Basic.rack[3].node[9].app 	throughput
field count 30366
field mean 15183.5
field stddev 8766.0534734851
field sum 461062161
field sqrsum 9333896074671
field min 1
field max 30366
statistic Basic.rack[3].node[9].app 	"End-to-End Delay"
field count 30366
field mean 0.00042475768383077
field stddev 1.7176097587882e-005
field sum 12.898191827205
field sqrsum 0.0054875643176688
field min 0.000112789288
field max 0.00060517816
statistic Basic.rack[3].node[9].app 	hops
field count 30366
field mean 4.23233221366
field stddev 0.79831652757714
field sum 128519
field sqrsum 563287
field min 3
field max 5
statistic Basic.rack[3].eps.queue[0] 	dropsum
field count 0
field mean nan
field stddev nan
field sum 0
field sqrsum 0
field min nan
field max nan
statistic Basic.rack[3].eps.queue[1] 	dropsum
field count 0
field mean nan
field stddev nan
field sum 0
field sqrsum 0
field min nan
field max nan
statistic Basic.rack[3].eps.queue[2] 	dropsum
field count 0
field mean nan
field stddev nan
field sum 0
field sqrsum 0
field min nan
field max nan
statistic Basic.rack[3].eps.queue[3] 	dropsum
field count 0
field mean nan
field stddev nan
field sum 0
field sqrsum 0
field min nan
field max nan
statistic Basic.rack[4].node[0].app 	throughput
field count 30600
field mean 15300.5
field stddev 8833.6034549894
field sum 468195300
field sqrsum 9551340185100
field min 1
field max 30600
statistic Basic.rack[4].node[0].app 	"End-to-End Delay"
field count 30600
field mean 0.00043339615655738
field stddev 1.7197130551606e-005
field sum 13.261922390656
field sqrsum 0.0057567155806871
field min 0.000180952125
field max 0.000600458693
statistic Basic.rack[4].node[0].app 	hops
field count 30600
field mean 5.2357843137255
field stddev 0.79525653791248
field sum 160215
field sqrsum 858203
field min 4
field max 6
statistic Basic.rack[4].node[1].app 	throughput
field count 30427
field mean 15214
field stddev 8783.6626566978
field sum 462916378
field sqrsum 9390258727730
field min 1
field max 30427
statistic Basic.rack[4].node[1].app 	"End-to-End Delay"
field count 30427
field mean 0.00043325385720636
field stddev 1.7109894278574e-005
field sum 13.182615113218
field sqrsum 0.0057203260111887
field min 8.8649964e-005
field max 0.000597275953
statistic Basic.rack[4].node[1].app 	hops
field count 30427
field mean 5.2310776612877
field stddev 0.7988417008116
field sum 159166
field sqrsum 852026
field min 4
field max 6
statistic Basic.rack[4].node[2].app 	throughput
field count 30381
field mean 15191
field stddev 8770.3836005046
field sum 461517771
field sqrsum 9347734773091
field min 1
field max 30381
statistic Basic.rack[4].node[2].app 	"End-to-End Delay"
field count 30381
field mean 0.00043333465489049
field stddev 1.6950980254075e-005
field sum 13.165140150228
field sqrsum 0.0057136407231092
field min 0.000350159395
field max 0.000591461786
statistic Basic.rack[4].node[2].app 	hops
field count 30381
field mean 5.2298476021197
field stddev 0.79960437457489
field sum 158888
field sqrsum 850384
field min 4
field max 6
statistic Basic.rack[4].node[3].app 	throughput
field count 30617
field mean 15309
field stddev 8838.5109322781
field sum 468715653
field sqrsum 9567267670485
field min 1
field max 30617
statistic Basic.rack[4].node[3].app 	"End-to-End Delay"
field count 30617
field mean 0.00043325046059783
field stddev 1.7017941939919e-005
field sum 13.264829352124
field sqrsum 0.0057558601369697
field min 0.000187639984
field max 0.000642593962
statistic Basic.rack[4].node[3].app 	hops
field count 30617
field mean 5.236829212529
field stddev 0.80105087147567
field sum 160336
field sqrsum 859298
field min 4
field max 6
statistic Basic.rack[4].node[4].app 	throughput
field count 30694
field mean 15347.5
field stddev 8860.7389176449
field sum 471076165
field sqrsum 9639631564395
field min 1
field max 30694
statistic Basic.rack[4].node[4].app 	"End-to-End Delay"
field count 30694
field mean 0.00043335046578817
field stddev 1.7243385095004e-005
field sum 13.301259196902
field sqrsum 0.005773232951123
field min 0.00019582803
field max 0.000663580296
statistic Basic.rack[4].node[4].app 	hops
field count 30694
field mean 5.2386459894442
field stddev 0.79831621029491
field sum 160795
field sqrsum 861909
field min 4
field max 6
statistic Basic.rack[4].node[5].app 	throughput
field count 30607
field mean 15304
field stddev 8835.6241809318
field sum 468409528
field sqrsum 9557896418840
field min 1
field max 30607
statistic Basic.rack[4].node[5].app 	"End-to-End Delay"
field count 30607
field mean 0.00043315258152946
field stddev 1.6664134808978e-005
field sum 13.257501062872
field sqrsum 0.0057510198938742
field min 0.000337893093
field max 0.00064950198
statistic Basic.rack[4].node[5].app 	hops
field count 30607
field mean 5.2281504231058
field stddev 0.80220212491259
field sum 160018
field sqrsum 856294
field min 4
field max 6
statistic Basic.rack[4].node[6].app 	throughput
field count 30496
field mean 15248.5
field stddev 8803.5812409875
field sum 465018256
field sqrsum 9454286162736
field min 1
field max 30496
statistic Basic.rack[4].node[6].app 	"End-to-End Delay"
field count 30496
field mean 0.00043322871100561
field stddev 1.6540377685682e-005
field sum 13.211742770827
field sqrsum 0.0057320492376892
field min 0.000399203056
field max 0.000676427723
statistic Basic.rack[4].node[6].app 	hops
field count 30496
field mean 5.2283578174187
field stddev 0.80034662435583
field sum 159444
field sqrsum 853164
field min 4
field max 6
statistic Basic.rack[4].node[7].app 	throughput
field count 30519
field mean 15260
field stddev 8810.2207690841
field sum 465719940
field sqrsum 9475693139220
field min 1
field max 30519
statistic Basic.rack[4].node[7].app 	"End-to-End Delay"
field count 30519
field mean 0.00043317092821557
field stddev 1.6967596784633e-005
field sum 13.219943558211
field sqrsum 0.0057352813341456
field min 7.6471626e-005
field max 0.000663127096
statistic Basic.rack[4].node[7].app 	hops
field count 30519
field mean 5.2298240440381
field stddev 0.80078796134672
field sum 159609
field sqrsum 854297
field min 4
field max 6
statistic Basic.rack[4].node[8].app 	throughput
field count 30513
field mean 15257
field stddev 8808.4887182763
field sum 465536841
field sqrsum 9470105598569
field min 1
field max 30513
statistic Basic.rack[4].node[8].app 	"End-to-End Delay"
field count 30513
field mean 0.00043338271337351
field stddev 1.7390850898613e-005
field sum 13.223806733166
field sqrsum 0.0057401973441436
field min 3.1440708e-005
field max 0.000677655523
statistic Basic.rack[4].node[8].app 	hops
field count 30513
field mean 5.2360633172746
field stddev 0.79821502011021
field sum 159768
field sqrsum 855996
field min 4
field max 6
statistic Basic.rack[4].node[9].app 	throughput
field count 30337
field mean 15169
field stddev 8757.6818945807
field sum 460181953
field sqrsum 9307179999425
field min 1
field max 30337
statistic Basic.rack[4].node[9].app 	"End-to-End Delay"
field count 30337
field mean 0.00043349713861555
field stddev 1.7404779446554e-005
field sum 13.15100269418
field sqrsum 0.0057101116115327
field min 0.000218730126
field max 0.000664567621
statistic Basic.rack[4].node[9].app 	hops
field count 30337
field mean 5.2357517223193
field stddev 0.79729367532069
field sum 158837
field sqrsum 850915
field min 4
field max 6
statistic Basic.rack[4].eps.queue[0] 	dropsum
field count 0
field mean nan
field stddev nan
field sum 0
field sqrsum 0
field min nan
field max nan
statistic Basic.rack[4].eps.queue[1] 	dropsum
field count 0
field mean nan
field stddev nan
field sum 0
field sqrsum 0
field min nan
field max nan
statistic Basic.rack[4].eps.queue[2] 	dropsum
field count 0
field mean nan
field stddev nan
field sum 0
field sqrsum 0
field min nan
field max nan
statistic Basic.rack[4].eps.queue[3] 	dropsum
field count 0
field mean nan
field stddev nan
field sum 0
field sqrsum 0
field min nan
field max nan
statistic Basic.rack[5].node[0].app 	throughput
field count 30375
field mean 15188
field stddev 8768.6515496968
field sum 461335500
field sqrsum 9342197653500
field min 1
field max 30375
statistic Basic.rack[5].node[0].app 	"End-to-End Delay"
field count 30375
field mean 0.00042525046593943
field stddev 1.7360003256575e-005
field sum 12.91698290291
field sqrsum 0.0055021068016588
field min 9.8912e-006
field max 0.000633144162
statistic Basic.rack[5].node[0].app 	hops
field count 30375
field mean 6.2295308641975
field stddev 0.79765803440882
field sum 189222
field sqrsum 1198090
field min 5
field max 7
statistic Basic.rack[5].node[1].app 	throughput
field count 30518
field mean 15259.5
field stddev 8809.9320939494
field sum 465689421
field sqrsum 9474761729859
field min 1
field max 30518
statistic Basic.rack[5].node[1].app 	"End-to-End Delay"
field count 30518
field mean 0.00042526371450661
field stddev 1.7344719137549e-005
field sum 12.978198039313
field sqrsum 0.0055283374181682
field min 5.1679587e-005
field max 0.000664435364
statistic Basic.rack[5].node[1].app 	hops
field count 30518
field mean 6.2243266269087
field stddev 0.8005605548358
field sum 189954
field sqrsum 1201894
field min 5
field max 7
statistic Basic.rack[5].node[2].app 	throughput
field count 30572
field mean 15286.5
field stddev 8825.5205512196
field sum 467338878
field sqrsum 9525145231770
field min 1
field max 30572
statistic Basic.rack[5].node[2].app 	"End-to-End Delay"
field count 30572
field mean 0.0004250590941169
field stddev 1.7258391771174e-005
field sum 12.994906625342
field sqrsum 0.0055327088744389
field min 9.5363289e-005
field max 0.000662262652
statistic Basic.rack[5].node[2].app 	hops
field count 30572
field mean 6.2289022635091
field stddev 0.80156657726493
field sum 190430
field sqrsum 1205812
field min 5
field max 7
statistic Basic.rack[5].node[3].app 	throughput
field count 30710
field mean 15355.5
field stddev 8865.357719799
field sum 471567405
field sqrsum 9654713860835
field min 1
field max 30710
statistic Basic.rack[5].node[3].app 	"End-to-End Delay"
field count 30710
field mean 0.00042509775224305
field stddev 1.685764106341e-005
field sum 13.054751971384
field sqrsum 0.0055582726046567
field min 0.000121341862
field max 0.000591565518
statistic Basic.rack[5].node[3].app 	hops
field count 30710
field mean 6.2218495604038
field stddev 0.8032858321122
field sum 191073
field sqrsum 1208643
field min 5
field max 7
statistic Basic.rack[5].node[4].app 	throughput
field count 30251
field mean 15126
field stddev 8732.8558330022
field sum 457576626
field sqrsum 9228252867626
field min 1
field max 30251
statistic Basic.rack[5].node[4].app 	"End-to-End Delay"
field count 30251
field mean 0.00042503665933113
field stddev 1.7136035770301e-005
field sum 12.857783981426
field sqrsum 0.0054739122724548
field min 3.0087602e-005
field max 0.000650659684
statistic Basic.rack[5].node[4].app 	hops
field count 30251
field mean 6.2281908036098
field stddev 0.80218294903657
field sum 188409
field sqrsum 1192913
field min 5
field max 7
statistic Basic.rack[5].node[5].app 	throughput
field count 30796
field mean 15398.5
field stddev 8890.1837813775
field sum 474212206
field sqrsum 9736050801386
field min 1
field max 30796
statistic Basic.rack[5].node[5].app 	"End-to-End Delay"
field count 30796
field mean 0.00042524775263398
field stddev 1.6990732264866e-005
field sum 13.095929790116
field sqrsum 0.0055779047659475
field min 0.000390198261
field max 0.000660766083
statistic Basic.rack[5].node[5].app 	hops
field count 30796
field mean 6.2292505520197
field stddev 0.79785984033352
field sum 191836
field sqrsum 1214598
field min 5
field max 7
statistic Basic.rack[5].node[6].app 	throughput
field count 30525
field mean 15263
field stddev 8811.9528198919
field sum 465903075
field sqrsum 9481282877275
field min 1
field max 30525
statistic Basic.rack[5].node[6].app 	"End-to-End Delay"
field count 30525
field mean 0.00042505703264888
field stddev 1.6970891167088e-005
field sum 12.974865921607
field sqrsum 0.0055238492599065
field min 3.9355224e-005
field max 0.000655526975
statistic Basic.rack[5].node[6].app 	hops
field count 30525
field mean 6.2351842751843
field stddev 0.79818075663422
field sum 190329
field sqrsum 1206183
field min 5
field max 7
statistic Basic.rack[5].node[7].app 	throughput
field count 30537
field mean 15269
field stddev 8815.4169215075
field sum 466269453
field sqrsum 9492468947325
field min 1
field max 30537
statistic Basic.rack[5].node[7].app 	"End-to-End Delay"
field count 30537
field mean 0.00042525122114284
field stddev 1.712937861441e-005
field sum 12.985896540039
field sqrsum 0.0055312281004056
field min 0.000154866078
field max 0.000588752635
statistic Basic.rack[5].node[7].app 	hops
field count 30537
field mean 6.228051216557
field stddev 0.80022125182342
field sum 190186
field sqrsum 1204042
field min 5
field max 7
statistic Basic.rack[5].node[8].app 	throughput
field count 30623
field mean 15312
field stddev 8840.2429830859
field sum 468899376
field sqrsum 9572893360624
field min 1
field max 30623
statistic Basic.rack[5].node[8].app 	"End-to-End Delay"
field count 30623
field mean 0.0004249705136212
field stddev 1.6779314797073e-005
field sum 13.013872038622
field sqrsum 0.0055391333678474
field min 5.7598241e-005
field max 0.000641343665
statistic Basic.rack[5].node[8].app 	hops
field count 30623
field mean 6.2406361231754
field stddev 0.79741746487962
field sum 191107
field sqrsum 1212101
field min 5
field max 7
statistic Basic.rack[5].node[9].app 	throughput
field count 30604
field mean 15302.5
field stddev 8834.7581555279
field sum 468317710
field sqrsum 9555086237130
field min 1
field max 30604
statistic Basic.rack[5].node[9].app 	"End-to-End Delay"
field count 30604
field mean 0.00042519486090436
field stddev 1.7096461057831e-005
field sum 13.012663523117
field sqrsum 0.0055418625763834
field min 0.000146726059
field max 0.000607645177
statistic Basic.rack[5].node[9].app 	hops
field count 30604
field mean 6.2333681871651
field stddev 0.80068110582251
field sum 190766
field sqrsum 1208734
field min 5
field max 7
statistic Basic.rack[5].eps.queue[0] 	dropsum
field count 0
field mean nan
field stddev nan
field sum 0
field sqrsum 0
field min nan
field max nan
statistic Basic.rack[5].eps.queue[1] 	dropsum
field count 0
field mean nan
field stddev nan
field sum 0
field sqrsum 0
field min nan
field max nan
statistic Basic.rack[5].eps.queue[2] 	dropsum
field count 0
field mean nan
field stddev nan
field sum 0
field sqrsum 0
field min nan
field max nan
statistic Basic.rack[5].eps.queue[3] 	dropsum
field count 0
field mean nan
field stddev nan
field sum 0
field sqrsum 0
field min nan
field max nan
statistic Basic.rack[6].node[0].app 	throughput
field count 30405
field mean 15203
field stddev 8777.3118037358
field sum 462247215
field sqrsum 9369905130455
field min 1
field max 30405
statistic Basic.rack[6].node[0].app 	"End-to-End Delay"
field count 30405
field mean 0.00042524799082904
field stddev 1.7439658005092e-005
field sum 12.929665161157
field sqrsum 0.0055075612552495
field min 0.000214837104
field max 0.000662940897
statistic Basic.rack[6].node[0].app 	hops
field count 30405
field mean 6.2254234500904
field stddev 0.80255290259375
field sum 189284
field sqrsum 1197956
field min 5
field max 7
statistic Basic.rack[6].node[1].app 	throughput
field count 30485
field mean 15243
field stddev 8800.4058145065
field sum 464682855
field sqrsum 9444059450735
field min 1
field max 30485
statistic Basic.rack[6].node[1].app 	"End-to-End Delay"
field count 30485
field mean 0.0004252854777008
field stddev 1.7319360200697e-005
field sum 12.964827787709
field sqrsum 0.0055228969668924
field min 0.00026084348
field max 0.000616240951
statistic Basic.rack[6].node[1].app 	hops
field count 30485
field mean 6.233787108414
field stddev 0.79817399364331
field sum 190037
field sqrsum 1204071
field min 5
field max 7
statistic Basic.rack[6].node[2].app 	throughput
field count 30954
field mean 15477.5
field stddev 8935.7944526494
field sum 479090535
field sqrsum 9886671977105
field min 1
field max 30954
statistic Basic.rack[6].node[2].app 	"End-to-End Delay"
field count 30954
field mean 0.00042515480528064
field stddev 1.7114511073472e-005
field sum 13.160241842657
field sqrsum 0.0056042063926238
field min 6.3869563e-005
field max 0.000588648768
statistic Basic.rack[6].node[2].app 	hops
field count 30954
field mean 6.2428442204562
field stddev 0.79752508645378
field sum 193241
field sqrsum 1226061
field min 5
field max 7
statistic Basic.rack[6].node[3].app 	throughput
field count 30393
field mean 15197
field stddev 8773.8477021202
field sum 461882421
field sqrsum 9358815575109
field min 1
field max 30393
statistic Basic.rack[6].node[3].app 	"End-to-End Delay"
field count 30393
field mean 0.00042522208569157
field stddev 1.7347641709641e-005
field sum 12.923774850424
field sqrsum 0.005504620685836
field min 3.8120786e-005
field max 0.000654910965
statistic Basic.rack[6].node[3].app 	hops
field count 30393
field mean 6.2355147566874
field stddev 0.79813272001669
field sum 189516
field sqrsum 1201090
field min 5
field max 7
statistic Basic.rack[6].node[4].app 	throughput
field count 30411
field mean 15206
field stddev 8779.0438545436
field sum 462429666
field sqrsum 9375453191706
field min 1
field max 30411
statistic Basic.rack[6].node[4].app 	"End-to-End Delay"
field count 30411
field mean 0.0004251801986008
field stddev 1.7082419778993e-005
field sum 12.930155019649
field sqrsum 0.0055065197928755
field min 0.00010610158
field max 0.000593350187
statistic Basic.rack[6].node[4].app 	hops
field count 30411
field mean 6.2333037387787
field stddev 0.79936899591277
field sum 189561
field sqrsum 1201023
field min 5
field max 7
statistic Basic.rack[6].node[5].app 	throughput
field count 30402
field mean 15201.5
field stddev 8776.4457783319
field sum 462156003
field sqrsum 9367131920805
field min 1
field max 30402
statistic Basic.rack[6].node[5].app 	"End-to-End Delay"
field count 30402
field mean 0.00042525103776301
field stddev 1.6957428046906e-005
field sum 12.928482050071
field sqrsum 0.0055065923487729
field min 0.000393185407
field max 0.000587340388
statistic Basic.rack[6].node[5].app 	hops
field count 30402
field mean 6.233997763305
field stddev 0.79828563538019
field sum 189526
field sqrsum 1200878
field min 5
field max 7
statistic Basic.rack[6].node[6].app 	throughput
field count 30644
field mean 15322.5
field stddev 8846.3051609132
field sum 469542690
field sqrsum 9592600642470
field min 1
field max 30644
statistic Basic.rack[6].node[6].app 	"End-to-End Delay"
field count 30644
field mean 0.00042519782693529
field stddev 1.7353156157727e-005
field sum 13.029762208605
field sqrsum 0.0055494541653358
field min 0.000192249168
field max 0.000646339338
statistic Basic.rack[6].node[6].app 	hops
field count 30644
field mean 6.2419070617413
field stddev 0.79853468075648
field sum 191277
field sqrsum 1213473
field min 5
field max 7
statistic Basic.rack[6].node[7].app 	throughput
field count 30610
field mean 15305.5
field stddev 8836.4902063357
field sum 468501355
field sqrsum 9560707151485
field min 1
field max 30610
statistic Basic.rack[6].node[7].app 	"End-to-End Delay"
field count 30610
field mean 0.00042522483717664
field stddev 1.7235823961616e-005
field sum 13.016132265977
field sqrsum 0.005543875850138
field min 0.000245850946
field max 0.000675726174
statistic Basic.rack[6].node[7].app 	hops
field count 30610
field mean 6.2452793204835
field stddev 0.79518058236768
field sum 191168
field sqrsum 1213252
field min 5
field max 7
statistic Basic.rack[6].node[8].app 	throughput
field count 30247
field mean 15124
field stddev 8731.7011324636
field sum 457455628
field sqrsum 9224592738620
field min 1
field max 30247
statistic Basic.rack[6].node[8].app 	"End-to-End Delay"
field count 30247
field mean 0.00042516708049102
field stddev 1.7013941407226e-005
field sum 12.860028683612
field sqrsum 0.0054764162871621
field min 0.000116297214
field max 0.000671144843
statistic Basic.rack[6].node[8].app 	hops
field count 30247
field mean 6.2315270935961
field stddev 0.79901115413029
field sum 188485
field sqrsum 1193859
field min 5
field max 7
statistic Basic.rack[6].node[9].app 	throughput
field count 30699
field mean 15350
field stddev 8862.1822933181
field sum 471229650
field sqrsum 9644343093450
field min 1
field max 30699
statistic Basic.rack[6].node[9].app 	"End-to-End Delay"
field count 30699
field mean 0.00042528095306785
field stddev 1.7246498779568e-005
field sum 13.05569997823
field sqrsum 0.0055614713956349
field min 0.000145290978
field max 0.000605378352
statistic Basic.rack[6].node[9].app 	hops
field count 30699
field mean 6.237988208085
field stddev 0.79584681091922
field sum 191500
field sqrsum 1214018
field min 5
field max 7
statistic Basic.rack[6].eps.queue[0] 	dropsum
field count 0
field mean nan
field stddev nan
field sum 0
field sqrsum 0
field min nan
field max nan
statistic Basic.rack[6].eps.queue[1] 	dropsum
field count 2280569
field mean 1140285
field stddev 658343.70736677
field sum 2600498622165
field sqrsum 3.9537452283387e+018
field min 1
field max 2280569
statistic Basic.rack[6].eps.queue[2] 	dropsum
field count 0
field mean nan
field stddev nan
field sum 0
field sqrsum 0
field min nan
field max nan
statistic Basic.rack[6].eps.queue[3] 	dropsum
field count 0
field mean nan
field stddev nan
field sum 0
field sqrsum 0
field min nan
field max nan
statistic Basic.rack[7].node[0].app 	throughput
field count 34408
field mean 17204.5
field stddev 9932.8783676569
field sum 591972436
field sqrsum 13579255709404
field min 1
field max 34408
statistic Basic.rack[7].node[0].app 	"End-to-End Delay"
field count 34408
field mean 0.0004246930673621
field stddev 1.7610815119229e-005
field sum 14.612839061795
field sqrsum 0.0062166424588433
field min 0.00015344402
field max 0.000653784001
statistic Basic.rack[7].node[0].app 	hops
field count 34408
field mean 4.234276912346
field stddev 0.79369030995895
field sum 145693
field sqrsum 638579
field min 3
field max 5
statistic Basic.rack[7].node[1].app 	throughput
field count 34637
field mean 17319
field stddev 9998.9849734861
field sum 599878203
field sqrsum 13852187504275
field min 1
field max 34637
statistic Basic.rack[7].node[1].app 	"End-to-End Delay"
field count 34637
field mean 0.00042457490388108
field stddev 1.7390567052364e-005
field sum 14.706000945729
field sqrsum 0.0062542739666087
field min 0.000269120923
field max 0.000642469729
statistic Basic.rack[7].node[1].app 	hops
field count 34637
field mean 4.2359615440136
field stddev 0.79517554232417
field sum 146721
field sqrsum 643405
field min 3
field max 5
statistic Basic.rack[7].node[2].app 	throughput
field count 34207
field mean 17104
field stddev 9874.8546655972
field sum 585076528
field sqrsum 13342670221040
field min 1
field max 34207
statistic Basic.rack[7].node[2].app 	"End-to-End Delay"
field count 34207
field mean 0.00042460207452451
field stddev 1.7155295125747e-005
field sum 14.52436316326
field sqrsum 0.0061771416980515
field min 0.000173572484
field max 0.000629476823
statistic Basic.rack[7].node[2].app 	hops
field count 34207
field mean 4.2319700646067
field stddev 0.79425076931083
field sum 144763
field sqrsum 634211
field min 3
field max 5
statistic Basic.rack[7].node[3].app 	throughput
field count 34406
field mean 17203.5
field stddev 9932.3010173877
field sum 591903621
field sqrsum 13576887957291
field min 1
field max 34406
statistic Basic.rack[7].node[3].app 	"End-to-End Delay"
field count 34406
field mean 0.00042465472884308
field stddev 1.7231501642466e-005
field sum 14.610670600575
field sqrsum 0.0062147060546465
field min 0.000226416307
field max 0.00059001283
statistic Basic.rack[7].node[3].app 	hops
field count 34406
field mean 4.2262686740685
field stddev 0.79647345031211
field sum 145409
field sqrsum 636363
field min 3
field max 5
statistic Basic.rack[7].node[4].app 	throughput
field count 34040
field mean 17020.5
field stddev 9826.6459181147
field sum 579377820
field sqrsum 13148207121140
field min 1
field max 34040
statistic Basic.rack[7].node[4].app 	"End-to-End Delay"
field count 34040
field mean 0.00042471381366487
field stddev 1.7486426309765e-005
field sum 14.457258217152
field sqrsum 0.0061506055513464
field min 0.000288741252
field max 0.000634089532
statistic Basic.rack[7].node[4].app 	hops
field count 34040
field mean 4.2227379553467
field stddev 0.79577014246828
field sum 143742
field sqrsum 628540
field min 3
field max 5
statistic Basic.rack[7].node[5].app 	throughput
field count 34494
field mean 17247.5
field stddev 9957.7044292347
field sum 594935265
field sqrsum 13681329665695
field min 1
field max 34494
statistic Basic.rack[7].node[5].app 	"End-to-End Delay"
field count 34494
field mean 0.00042452879485122
field stddev 1.7183893393018e-005
field sum 14.643696249598
field sqrsum 0.0062268560276347
field min 7.5568865e-005
field max 0.000639996843
statistic Basic.rack[7].node[5].app 	hops
field count 34494
field mean 4.2268220560097
field stddev 0.79738331070871
field sum 145800
field sqrsum 638202
field min 3
field max 5
statistic Basic.rack[7].node[6].app 	throughput
field count 34488
field mean 17244.5
field stddev 9955.9723784269
field sum 594728316
field sqrsum 13674191684244
field min 1
field max 34488
statistic Basic.rack[7].node[6].app 	"End-to-End Delay"
field count 34488
field mean 0.0004246349929646
field stddev 1.7117391891637e-005
field sum 14.644811637363
field sqrsum 0.0062288043536615
field min 0.000387703214
field max 0.000605715714
statistic Basic.rack[7].node[6].app 	hops
field count 34488
field mean 4.2216713059615
field stddev 0.79546812158585
field sum 145597
field sqrsum 636485
field min 3
field max 5
statistic Basic.rack[7].node[7].app 	throughput
field count 34360
field mean 17180.5
field stddev 9919.0219611949
field sum 590321980
field sqrsum 13522505595860
field min 1
field max 34360
statistic Basic.rack[7].node[7].app 	"End-to-End Delay"
field count 34360
field mean 0.00042450322117599
field stddev 1.7171663902477e-005
field sum 14.585930679607
field sqrsum 0.0062019058596518
field min 0.000321195178
field max 0.000634765814
statistic Basic.rack[7].node[7].app 	hops
field count 34360
field mean 4.223282887078
field stddev 0.79962180170833
field sum 145112
field sqrsum 634818
field min 3
field max 5
statistic Basic.rack[7].node[8].app 	throughput
field count 34254
field mean 17127.5
field stddev 9888.4223969246
field sum 586685385
field sqrsum 13397743013655
field min 1
field max 34254
statistic Basic.rack[7].node[8].app 	"End-to-End Delay"
field count 34254
field mean 0.00042451348141358
field stddev 1.7244707986967e-005
field sum 14.541284792341
field sqrsum 0.0061831575869722
field min 2.8844565e-005
field max 0.000632356958
statistic Basic.rack[7].node[8].app 	hops
field count 34254
field mean 4.2306591930869
field stddev 0.79554715192592
field sum 144917
field sqrsum 634773
field min 3
field max 5
statistic Basic.rack[7].node[9].app 	throughput
field count 34579
field mean 17290
field stddev 9982.2418156778
field sum 597870910
field sqrsum 13782718088230
field min 1
field max 34579
statistic Basic.rack[7].node[9].app 	"End-to-End Delay"
field count 34579
field mean 0.00042461801975734
field stddev 1.726681541876e-005
field sum 14.682866505189
field sqrsum 0.0062449188854993
field min 4.452708e-005
field max 0.000613183053
statistic Basic.rack[7].node[9].app 	hops
field count 34579
field mean 4.2304577923017
field stddev 0.79544225306515
field sum 146285
field sqrsum 640731
field min 3
field max 5
statistic Basic.rack[7].eps.queue[0] 	dropsum
field count 0
field mean nan
field stddev nan
field sum 0
field sqrsum 0
field min nan
field max nan
statistic Basic.rack[7].eps.queue[1] 	dropsum
field count 0
field mean nan
field stddev nan
field sum 0
field sqrsum 0
field min nan
field max nan
statistic Basic.rack[7].eps.queue[2] 	dropsum
field count 0
field mean nan
field stddev nan
field sum 0
field sqrsum 0
field min nan
field max nan
statistic Basic.rack[7].eps.queue[3] 	dropsum
field count 0
field mean nan
field stddev nan
field sum 0
field sqrsum 0
field min nan
field max nan
statistic Basic.rack[8].node[0].app 	throughput
field count 34484
field mean 17242.5
field stddev 9954.8176778884
field sum 594590370
field sqrsum 13669434409510
field min 1
field max 34484
statistic Basic.rack[8].node[0].app 	"End-to-End Delay"
field count 34484
field mean 0.00043299464780843
field stddev 1.6905178415166e-005
field sum 14.931387435026
field sqrsum 0.0064750655698495
field min 0.00021214058
field max 0.000618679907
statistic Basic.rack[8].node[0].app 	hops
field count 34484
field mean 5.2223929938522
field stddev 0.79855501497611
field sum 180089
field sqrsum 962485
field min 4
field max 6
statistic Basic.rack[8].node[1].app 	throughput
field count 34584
field mean 17292.5
field stddev 9983.6851913509
field sum 598043820
field sqrsum 13788697661860
field min 1
field max 34584
statistic Basic.rack[8].node[1].app 	"End-to-End Delay"
field count 34584
field mean 0.00043317367664605
field stddev 1.7196637923143e-005
field sum 14.980878433127
field sqrsum 0.0064995492256638
field min 0.000236585661
field max 0.000614523102
statistic Basic.rack[8].node[1].app 	hops
field count 34584
field mean 5.2267522553782
field stddev 0.79668022724034
field sum 180762
field sqrsum 966748
field min 4
field max 6
statistic Basic.rack[8].node[2].app 	throughput
field count 34427
field mean 17214
field stddev 9938.3631952148
field sum 592626378
field sqrsum 13601763085730
field min 1
field max 34427
statistic Basic.rack[8].node[2].app 	"End-to-End Delay"
field count 34427
field mean 0.00043336189612159
field stddev 1.7678327114463e-005
field sum 14.919349997778
field sqrsum 0.0064762367293282
field min 0.000122853948
field max 0.000672594997
statistic Basic.rack[8].node[2].app 	hops
field count 34427
field mean 5.2290353501612
field stddev 0.79304213450913
field sum 180020
field sqrsum 962982
field min 4
field max 6
statistic Basic.rack[8].node[3].app 	throughput
field count 34355
field mean 17178
field stddev 9917.5785855218
field sum 590150190
field sqrsum 13516603235030
field min 1
field max 34355
statistic Basic.rack[8].node[3].app 	"End-to-End Delay"
field count 34355
field mean 0.00043308875519424
field stddev 1.7391025806754e-005
field sum 14.878764184698
field sqrsum 0.0064542157505659
field min 5.28152e-005
field max 0.000628871762
statistic Basic.rack[8].node[3].app 	hops
field count 34355
field mean 5.2277979915587
field stddev 0.79866521568241
field sum 179601
field sqrsum 960831
field min 4
field max 6
statistic Basic.rack[8].node[4].app 	throughput
field count 34552
field mean 17276.5
field stddev 9974.4475870429
field sum 596937628
field sqrsum 13750458260980
field min 1
field max 34552
statistic Basic.rack[8].node[4].app 	"End-to-End Delay"
field count 34552
field mean 0.00043321597988423
field stddev 1.7323421660144e-005
field sum 14.96847853696
field sqrsum 0.0064949528842746
field min 0.000398640634
field max 0.00063398555
statistic Basic.rack[8].node[4].app 	hops
field count 34552
field mean 5.2327795786062
field stddev 0.79539414357305
field sum 180803
field sqrsum 967961
field min 4
field max 6
statistic Basic.rack[8].node[5].app 	throughput
field count 34447
field mean 17224
field stddev 9944.1366979073
field sum 593315128
field sqrsum 13625481914520
field min 1
field max 34447
statistic Basic.rack[8].node[5].app 	"End-to-End Delay"
field count 34447
field mean 0.00043333317651032
field stddev 1.7655205581289e-005
field sum 14.927027931251
field sqrsum 0.00647911346397
field min 0.000129119485
field max 0.000641120885
statistic Basic.rack[8].node[5].app 	hops
field count 34447
field mean 5.2246639765437
field stddev 0.79590496446737
field sum 179974
field sqrsum 962124
field min 4
field max 6
statistic Basic.rack[8].node[6].app 	throughput
field count 34481
field mean 17241
field stddev 9953.9516524846
field sum 594486921
field sqrsum 13665867177641
field min 1
field max 34481
statistic Basic.rack[8].node[6].app 	"End-to-End Delay"
field count 34481
field mean 0.00043317584689791
field stddev 1.7493922955583e-005
field sum 14.936336376887
field sqrsum 0.0064806123271063
field min 0.000104561923
field max 0.000636086133
statistic Basic.rack[8].node[6].app 	hops
field count 34481
field mean 5.2212812853456
field stddev 0.79804764293545
field sum 180035
field sqrsum 961973
field min 4
field max 6
statistic Basic.rack[8].node[7].app 	throughput
field count 34317
field mean 17159
field stddev 9906.608930406
field sum 588845403
field sqrsum 13471801411635
field min 1
field max 34317
statistic Basic.rack[8].node[7].app 	"End-to-End Delay"
field count 34317
field mean 0.00043308608536521
field stddev 1.7239042431424e-005
field sum 14.862215191478
field sqrsum 0.0064468167833154
field min 0.000212533153
field max 0.000655603613
statistic Basic.rack[8].node[7].app 	hops
field count 34317
field mean 5.2239123466503
field stddev 0.7986733070627
field sum 179269
field sqrsum 958375
field min 4
field max 6
statistic Basic.rack[8].node[8].app 	throughput
field count 34517
field mean 17259
field stddev 9964.3439573311
field sum 595728903
field sqrsum 13708714939535
field min 1
field max 34517
statistic Basic.rack[8].node[8].app 	"End-to-End Delay"
field count 34517
field mean 0.00043331325123061
field stddev 1.7492155334101e-005
field sum 14.956673492727
field sqrsum 0.0064914858690252
field min 0.000398032155
field max 0.00065467409
statistic Basic.rack[8].node[8].app 	hops
field count 34517
field mean 5.2270185705594
field stddev 0.79580329728381
field sum 180421
field sqrsum 964923
field min 4
field max 6
statistic Basic.rack[8].node[9].app 	throughput
field count 34386
field mean 17193.5
field stddev 9926.5275146952
field sum 591215691
field sqrsum 13553225572381
field min 1
field max 34386
statistic Basic.rack[8].node[9].app 	"End-to-End Delay"
field count 34386
field mean 0.00043324228704638
field stddev 1.7407504503247e-005
field sum 14.897469282377
field sqrsum 0.0064646330475103
field min 0.000389767962
field max 0.000662823942
statistic Basic.rack[8].node[9].app 	hops
field count 34386
field mean 5.2323620077939
field stddev 0.79396127796796
field sum 179920
field sqrsum 963082
field min 4
field max 6
statistic Basic.rack[8].eps.queue[0] 	dropsum
field count 0
field mean nan
field stddev nan
field sum 0
field sqrsum 0
field min nan
field max nan
statistic Basic.rack[8].eps.queue[1] 	dropsum
field count 0
field mean nan
field stddev nan
field sum 0
field sqrsum 0
field min nan
field max nan
statistic Basic.rack[8].eps.queue[2] 	dropsum
field count 0
field mean nan
field stddev nan
field sum 0
field sqrsum 0
field min nan
field max nan
statistic Basic.rack[8].eps.queue[3] 	dropsum
field count 0
field mean nan
field stddev nan
field sum 0
field sqrsum 0
field min nan
field max nan
statistic Basic.rack[9].node[0].app 	throughput
field count 51900
field mean 25950.5
field stddev 14982.383822343
field sum 1346830950
field sqrsum 46600799813650
field min 1
field max 51900
statistic Basic.rack[9].node[0].app 	"End-to-End Delay"
field count 51900
field mean 0.00023020288880373
field stddev 0.00020380572090172
field sum 11.947529928914
field sqrsum 0.0049060728271038
field min 1.80336e-005
field max 0.000615441647
statistic Basic.rack[9].node[0].app 	hops
field count 51900
field mean 5.9977456647399
field stddev 0.554384235205
field sum 311283
field sqrsum 1882947
field min 5
field max 7
statistic Basic.rack[9].node[1].app 	throughput
field count 51185
field mean 25593
field stddev 14775.981101098
field sum 1309977705
field sqrsum 44701242546185
field min 1
field max 51185
statistic Basic.rack[9].node[1].app 	"End-to-End Delay"
field count 51185
field mean 0.00022926143520015
field stddev 0.00020386512241081
field sum 11.73474656072
field sqrsum 0.0048175824549517
field min 1.80336e-005
field max 0.00065067854
statistic Basic.rack[9].node[1].app 	hops
field count 51185
field mean 6.000351665527
field stddev 0.55327313427044
field sum 307128
field sqrsum 1858544
field min 5
field max 7
statistic Basic.rack[9].node[2].app 	throughput
field count 51769
field mean 25885
field stddev 14944.567379709
field sum 1340040565
field sqrsum 46248820019845
field min 1
field max 51769
statistic Basic.rack[9].node[2].app 	"End-to-End Delay"
field count 51769
field mean 0.0002284621604577
field stddev 0.00020382278964749
field sum 11.827257584734
field sqrsum 0.0048527166129792
field min 1.80336e-005
field max 0.000629266428
statistic Basic.rack[9].node[2].app 	hops
field count 51769
field mean 6.0025497884835
field stddev 0.54957562595441
field sum 310746
field sqrsum 1880904
field min 5
field max 7
statistic Basic.rack[9].node[3].app 	throughput
field count 51600
field mean 25800.5
field stddev 14895.78128196
field sum 1331305800
field sqrsum 45797363288600
field min 1
field max 51600
statistic Basic.rack[9].node[3].app 	"End-to-End Delay"
field count 51600
field mean 0.00023044217348788
field stddev 0.00020388750826226
field sum 11.890816151975
field sqrsum 0.0048851219354
field min 1.80336e-005
field max 0.000645208798
statistic Basic.rack[9].node[3].app 	hops
field count 51600
field mean 6.0001937984496
field stddev 0.55118445164463
field sum 309610
field sqrsum 1873396
field min 5
field max 7
statistic Basic.rack[9].node[4].app 	throughput
field count 51362
field mean 25681.5
field stddev 14827.076599924
field sum 1319053203
field sqrsum 45166580092725
field min 1
field max 51362
statistic Basic.rack[9].node[4].app 	"End-to-End Delay"
field count 51362
field mean 0.00023171117381877
field stddev 0.00020364682544946
field sum 11.90114930968
field sqrsum 0.0048876741842912
field min 1.80336e-005
field max 0.000657637403
statistic Basic.rack[9].node[4].app 	hops
field count 51362
field mean 5.9980919746116
field stddev 0.55659986652138
field sum 308074
field sqrsum 1863768
field min 5
field max 7
statistic Basic.rack[9].node[5].app 	throughput
field count 51457
field mean 25729
field stddev 14854.500737711
field sum 1323937153
field sqrsum 45417664033665
field min 1
field max 51457
statistic Basic.rack[9].node[5].app 	"End-to-End Delay"
field count 51457
field mean 0.00023178717945375
field stddev 0.00020375423901922
field sum 11.927072893152
field sqrsum 0.004900779071079
field min 1.80336e-005
field max 0.000642558843
statistic Basic.rack[9].node[5].app 	hops
field count 51457
field mean 5.9993975552403
field stddev 0.55400546586427
field sum 308711
field sqrsum 1867873
field min 5
field max 7
statistic Basic.rack[9].node[6].app 	throughput
field count 51485
field mean 25743
field stddev 14862.58364148
field sum 1325378355
field sqrsum 45491844864235
field min 1
field max 51485
statistic Basic.rack[9].node[6].app 	"End-to-End Delay"
field count 51485
field mean 0.00023067418381862
field stddev 0.00020392004505232
field sum 11.876260353902
field sqrsum 0.0048804256456654
field min 1.80336e-005
field max 0.000657184112
statistic Basic.rack[9].node[6].app 	hops
field count 51485
field mean 6.0012819267748
field stddev 0.55063540670352
field sum 308976
field sqrsum 1869862
field min 5
field max 7
statistic Basic.rack[9].node[7].app 	throughput
field count 51789
field mean 25895
field stddev 14950.340882401
field sum 1341076155
field sqrsum 46302442352915
field min 1
field max 51789
statistic Basic.rack[9].node[7].app 	"End-to-End Delay"
field count 51789
field mean 0.00023070631565557
field stddev 0.00020386736998246
field sum 11.948049381487
field sqrsum 0.0049088983645757
field min 1.80336e-005
field max 0.000640315778
statistic Basic.rack[9].node[7].app 	hops
field count 51789
field mean 5.9969877773272
field stddev 0.55356352214799
field sum 310578
field sqrsum 1878402
field min 5
field max 7
statistic Basic.rack[9].node[8].app 	throughput
field count 51237
field mean 25619
field stddev 14790.992208097
field sum 1312640703
field sqrsum 44837618679975
field min 1
field max 51237
statistic Basic.rack[9].node[8].app 	"End-to-End Delay"
field count 51237
field mean 0.00023026056472359
field stddev 0.00020375659151253
field sum 11.797860554743
field sqrsum 0.0048437341643561
field min 1.80336e-005
field max 0.00065624452
statistic Basic.rack[9].node[8].app 	hops
field count 51237
field mean 5.9997462771044
field stddev 0.55368016770794
field sum 307409
field sqrsum 1860083
field min 5
field max 7
statistic Basic.rack[9].node[9].app 	throughput
field count 51828
field mean 25914.5
field stddev 14961.599212651
field sum 1343096706
field sqrsum 46407125084614
field min 1
field max 51828
statistic Basic.rack[9].node[9].app 	"End-to-End Delay"
field count 51828
field mean 0.0002306009236304
field stddev 0.00020376496879977
field sum 11.951584669916
field sqrsum 0.004907911926134
field min 1.80336e-005
field max 0.000615842004
statistic Basic.rack[9].node[9].app 	hops
field count 51828
field mean 5.9998456432816
field stddev 0.55677000371569
field sum 310960
field sqrsum 1881778
field min 5
field max 7
statistic Basic.rack[9].eps.queue[0] 	dropsum
field count 0
field mean nan
field stddev nan
field sum 0
field sqrsum 0
field min nan
field max nan
statistic Basic.rack[9].eps.queue[1] 	dropsum
field count 0
field mean nan
field stddev nan
field sum 0
field sqrsum 0
field min nan
field max nan
statistic Basic.rack[9].eps.queue[2] 	dropsum
field count 0
field mean nan
field stddev nan
field sum 0
field sqrsum 0
field min nan
field max nan
statistic Basic.rack[9].eps.queue[3] 	dropsum
field count 0
field mean nan
field stddev nan
field sum 0
field sqrsum 0
field min nan
field max nan
statistic Basic.rack[10].node[0].app 	throughput
field count 51776
field mean 25888.5
field stddev 14946.588105651
field sum 1340402976
field sqrsum 46267583124576
field min 1
field max 51776
statistic Basic.rack[10].node[0].app 	"End-to-End Delay"
field count 51776
field mean 0.0002308072354694
field stddev 0.00020352115637787
field sum 11.950275423664
field sqrsum 0.0049027751167437
field min 1.80336e-005
field max 0.000595119764
statistic Basic.rack[10].node[0].app 	hops
field count 51776
field mean 5.9994785228677
field stddev 0.55446018083508
field sum 310629
field sqrsum 1879529
field min 5
field max 7
statistic Basic.rack[10].node[1].app 	throughput
field count 51645
field mean 25823
field stddev 14908.771663018
field sum 1333628835
field sqrsum 45917285331995
field min 1
field max 51645
statistic Basic.rack[10].node[1].app 	"End-to-End Delay"
field count 51645
field mean 0.00022972838868782
field stddev 0.0002036564654044
field sum 11.864322633783
field sqrsum 0.0048675559880833
field min 1.80336e-005
field max 0.000641169941
statistic Basic.rack[10].node[1].app 	hops
field count 51645
field mean 5.9980830670927
field stddev 0.55018480470945
field sum 309771
field sqrsum 1873665
field min 5
field max 7
statistic Basic.rack[10].node[2].app 	throughput
field count 51576
field mean 25788.5
field stddev 14888.85307873
field sum 1330067676
field sqrsum 45733490327476
field min 1
field max 51576
statistic Basic.rack[10].node[2].app 	"End-to-End Delay"
field count 51576
field mean 0.00022989063449283
field stddev 0.00020353367155623
field sum 11.856839364602
field sqrsum 0.0048623199773111
field min 9.8912e-006
field max 0.000640631055
statistic Basic.rack[10].node[2].app 	hops
field count 51576
field mean 6.0008531099736
field stddev 0.55226080906094
field sum 309500
field sqrsum 1872994
field min 5
field max 7
statistic Basic.rack[10].node[3].app 	throughput
field count 51785
field mean 25893
field stddev 14949.186181863
field sum 1340869005
field sqrsum 46291714572285
field min 1
field max 51785
statistic Basic.rack[10].node[3].app 	"End-to-End Delay"
field count 51785
field mean 0.00023107880717211
field stddev 0.00020350322005914
field sum 11.966416029408
field sqrsum 0.0049097449629875
field min 1.80336e-005
field max 0.000642639375
statistic Basic.rack[10].node[3].app 	hops
field count 51785
field mean 5.9967171960993
field stddev 0.55622819961267
field sum 310540
field sqrsum 1878242
field min 5
field max 7
statistic Basic.rack[10].node[4].app 	throughput
field count 51399
field mean 25700
field stddev 14837.757579904
field sum 1320954300
field sqrsum 45264260361900
field min 1
field max 51399
statistic Basic.rack[10].node[4].app 	"End-to-End Delay"
field count 51399
field mean 0.00023269918112595
field stddev 0.00020356655922442
field sum 11.960505210693
field sqrsum 0.0049130991730645
field min 1.80336e-005
field max 0.000639132564
statistic Basic.rack[10].node[4].app 	hops
field count 51399
field mean 6.0000778225257
field stddev 0.55380911420476
field sum 308398
field sqrsum 1866176
field min 5
field max 7
statistic Basic.rack[10].node[5].app 	throughput
field count 51901
field mean 25951
field stddev 14982.672497477
field sum 1346882851
field sqrsum 46603493527451
field min 1
field max 51901
statistic Basic.rack[10].node[5].app 	"End-to-End Delay"
field count 51901
field mean 0.0002294791813386
field stddev 0.00020358694608622
field sum 11.910198990655
field sqrsum 0.0048842754695627
field min 1.80336e-005
field max 0.000652546231
statistic Basic.rack[10].node[5].app 	hops
field count 51901
field mean 5.9992871042947
field stddev 0.55211929442528
field sum 311369
field sqrsum 1883813
field min 5
field max 7
statistic Basic.rack[10].node[6].app 	throughput
field count 51448
field mean 25724.5
field stddev 14851.9026615
field sum 1323474076
field sqrsum 45393837332724
field min 1
field max 51448
statistic Basic.rack[10].node[6].app 	"End-to-End Delay"
field count 51448
field mean 0.00023011699924725
field stddev 0.00020352522328713
field sum 11.839059377273
field sqrsum 0.0048554330249077
field min 1.80336e-005
field max 0.000643898117
statistic Basic.rack[10].node[6].app 	hops
field count 51448
field mean 5.9959570828798
field stddev 0.5530387233445
field sum 308480
field sqrsum 1865368
field min 5
field max 7
statistic Basic.rack[10].node[7].app 	throughput
field count 51442
field mean 25721.5
field stddev 14850.170610692
field sum 1323165403
field sqrsum 45377957495885
field min 1
field max 51442
statistic Basic.rack[10].node[7].app 	"End-to-End Delay"
field count 51442
field mean 0.00023151845865051
field stddev 0.00020364232001979
field sum 11.909772549899
field sqrsum 0.0048906004590618
field min 1.80336e-005
field max 0.000661772595
statistic Basic.rack[10].node[7].app 	hops
field count 51442
field mean 5.99706465534
field stddev 0.55362249479197
field sum 308501
field sqrsum 1865867
field min 5
field max 7
statistic Basic.rack[10].node[8].app 	throughput
field count 51338
field mean 25669.5
field stddev 14820.148396693
field sum 1317820791
field sqrsum 45103295119169
field min 1
field max 51338
statistic Basic.rack[10].node[8].app 	"End-to-End Delay"
field count 51338
field mean 0.0002309126767425
field stddev 0.00020360106778948
field sum 11.854594998606
field sqrsum 0.0048654691919317
field min 1.4094042e-005
field max 0.000647150445
statistic Basic.rack[10].node[8].app 	hops
field count 51338
field mean 6.0016362148896
field stddev 0.55343213966734
field sum 308112
field sqrsum 1864900
field min 5
field max 7
statistic Basic.rack[10].node[9].app 	throughput
field count 51761
field mean 25881
field stddev 14942.257978632
field sum 1339626441
field sqrsum 46227382683881
field min 1
field max 51761
statistic Basic.rack[10].node[9].app 	"End-to-End Delay"
field count 51761
field mean 0.00023213821441807
field stddev 0.00020354363410437
field sum 12.015706116493
field sqrsum 0.0049337219314082
field min 1.80336e-005
field max 0.000624188176
statistic Basic.rack[10].node[9].app 	hops
field count 51761
field mean 5.9958076544116
field stddev 0.55692372127407
field sum 310349
field sqrsum 1876847
field min 5
field max 7
statistic Basic.rack[10].eps.queue[0] 	dropsum
field count 0
field mean nan
field stddev nan
field sum 0
field sqrsum 0
field min nan
field max nan
statistic Basic.rack[10].eps.queue[1] 	dropsum
field count 2780305
field mean 1390153
field stddev 802605.06442947
field sum 3865049336665
field sqrsum 7.1640119523442e+018
field min 1
field max 2780305
statistic Basic.rack[10].eps.queue[2] 	dropsum
field count 0
field mean nan
field stddev nan
field sum 0
field sqrsum 0
field min nan
field max nan
statistic Basic.rack[10].eps.queue[3] 	dropsum
field count 0
field mean nan
field stddev nan
field sum 0
field sqrsum 0
field min nan
field max nan
statistic Basic.rack[11].node[0].app 	throughput
field count 30228
field mean 15114.5
field stddev 8726.2163049056
field sum 456881106
field sqrsum 9207220341814
field min 1
field max 30228
statistic Basic.rack[11].node[0].app 	"End-to-End Delay"
field count 30228
field mean 0.00042452522584416
field stddev 1.6664830811306e-005
field sum 12.832548526817
field sqrsum 0.0054561351007473
field min 0.000389109648
field max 0.000618013365
statistic Basic.rack[11].node[0].app 	hops
field count 30228
field mean 4.2271403996295
field stddev 0.80340802388633
field sum 127778
field sqrsum 559646
field min 3
field max 5
statistic Basic.rack[11].node[1].app 	throughput
field count 30518
field mean 15259.5
field stddev 8809.9320939494
field sum 465689421
field sqrsum 9474761729859
field min 1
field max 30518
statistic Basic.rack[11].node[1].app 	"End-to-End Delay"
field count 30518
field mean 0.00042457743484904
field stddev 1.6730072394152e-005
field sum 12.957254156723
field sqrsum 0.0055098992980996
field min 0.000386537379
field max 0.000596548503
statistic Basic.rack[11].node[1].app 	hops
field count 30518
field mean 4.2366472245888
field stddev 0.79955040582849
field sum 129294
field sqrsum 567282
field min 3
field max 5
statistic Basic.rack[11].node[2].app 	throughput
field count 30696
field mean 15348.5
field stddev 8861.3162679142
field sum 471137556
field sqrsum 9641515991836
field min 1
field max 30696
statistic Basic.rack[11].node[2].app 	"End-to-End Delay"
field count 30696
field mean 0.00042458832730783
field stddev 1.6811559990599e-005
field sum 13.033163295041
field sqrsum 0.0055424042862926
field min 0.00012796914
field max 0.000603801945
statistic Basic.rack[11].node[2].app 	hops
field count 30696
field mean 4.2268373729476
field stddev 0.80286040536258
field sum 129747
field sqrsum 568205
field min 3
field max 5
statistic Basic.rack[11].node[3].app 	throughput
field count 30285
field mean 15143
field stddev 8742.6707875797
field sum 458605755
field sqrsum 9259403062035
field min 1
field max 30285
statistic Basic.rack[11].node[3].app 	"End-to-End Delay"
field count 30285
field mean 0.00042456538116213
field stddev 1.6864750030407e-005
field sum 12.857962568495
field sqrsum 0.0054676591478905
field min 0.00013408005
[...]
field count 30395
field mean 6.2282612271755
field stddev 0.80066111571012
field sum 189308
field sqrsum 1198544
field min 5
field max 7
statistic Basic.rack[13].node[2].app 	throughput
field count 30434
field mean 15217.5
field stddev 8785.6833826402
field sum 463129395
field sqrsum 9396741048085
field min 1
field max 30434
statistic Basic.rack[13].node[2].app 	"End-to-End Delay"
field count 30434
field mean 0.00042517567328672
field stddev 1.7044196125398e-005
field sum 12.939796440808
field sqrsum 0.0055105275910616
field min 0.000140407489
field max 0.000595443244
statistic Basic.rack[13].node[2].app 	hops
field count 30434
field mean 6.2335217191299
field stddev 0.79934750487335
field sum 189711
field sqrsum 1202013
field min 5
field max 7
statistic Basic.rack[13].node[3].app 	throughput
field count 30933
field mean 15467
field stddev 8929.7322748221
field sum 478440711
field sqrsum 9866563822479
field min 1
field max 30933
statistic Basic.rack[13].node[3].app 	"End-to-End Delay"
field count 30933
field mean 0.00042523882638655
field stddev 1.7156791251728e-005
field sum 13.153912616615
field sqrsum 0.0056026593673752
field min 0.00039358874
field max 0.000590213988
statistic Basic.rack[13].node[3].app 	hops
field count 30933
field mean 6.2270390844729
field stddev 0.80088904817196
field sum 192621
field sqrsum 1219299
field min 5
field max 7
statistic Basic.rack[13].node[4].app 	throughput
field count 30334
field mean 15167.5
field stddev 8756.8158691768
field sum 460090945
field sqrsum 9304419180735
field min 1
field max 30334
statistic Basic.rack[13].node[4].app 	"End-to-End Delay"
field count 30334
field mean 0.00042510150130247
field stddev 1.6860101819865e-005
field sum 12.895028940509
field sqrsum 0.0054903187125405
field min 0.000218381887
field max 0.000591102588
statistic Basic.rack[13].node[4].app 	hops
field count 30334
field mean 6.2318190808993
field stddev 0.80046816945754
field sum 189036
field sqrsum 1197474
field min 5
field max 7
statistic Basic.rack[13].node[5].app 	throughput
field count 30453
field mean 15227
field stddev 8791.1682101982
field sum 463707831
field sqrsum 9414350954239
field min 1
field max 30453
statistic Basic.rack[13].node[5].app 	"End-to-End Delay"
field count 30453
field mean 0.0004251658695034
field stddev 1.6708777980004e-005
field sum 12.947576223987
field sqrsum 0.0055133691919147
field min 0.0003927013
field max 0.000600576966
statistic Basic.rack[13].node[5].app 	hops
field count 30453
field mean 6.2318326601648
field stddev 0.79728583279377
field sum 189778
field sqrsum 1202022
field min 5
field max 7
statistic Basic.rack[13].node[6].app 	throughput
field count 30380
field mean 15190.5
field stddev 8770.09492537
field sum 461487390
field sqrsum 9346811767930
field min 1
field max 30380
statistic Basic.rack[13].node[6].app 	"End-to-End Delay"
field count 30380
field mean 0.00042532666850902
field stddev 1.7286256042132e-005
field sum 12.921424189304
field sqrsum 0.0055049039930187
field min 0.000396840322
field max 0.000630633584
statistic Basic.rack[13].node[6].app 	hops
field count 30380
field mean 6.2309084924292
field stddev 0.79704466067215
field sum 189295
field sqrsum 1198779
field min 5
field max 7
statistic Basic.rack[13].node[7].app 	throughput
field count 30514
field mean 15257.5
field stddev 8808.7773934109
field sum 465567355
field sqrsum 9471036702765
field min 1
field max 30514
statistic Basic.rack[13].node[7].app 	"End-to-End Delay"
field count 30514
field mean 0.00042535815129511
field stddev 1.7334869353282e-005
field sum 12.979378628619
field sqrsum 0.0055300535846113
field min 0.000291744794
field max 0.000620079329
statistic Basic.rack[13].node[7].app 	hops
field count 30514
field mean 6.2298289309825
field stddev 0.79743323909882
field sum 190097
field sqrsum 1203675
field min 5
field max 7
statistic Basic.rack[13].node[8].app 	throughput
field count 30331
field mean 15166
field stddev 8755.9498437729
field sum 459999946
field sqrsum 9301658908066
field min 1
field max 30331
statistic Basic.rack[13].node[8].app 	"End-to-End Delay"
field count 30331
field mean 0.00042523880012667
field stddev 1.7253281217098e-005
field sum 12.897918046642
field sqrsum 0.0054937236986541
field min 5.60669e-005
field max 0.000610869946
statistic Basic.rack[13].node[8].app 	hops
field count 30331
field mean 6.2341828492302
field stddev 0.79786227782275
field sum 189089
field sqrsum 1198123
field min 5
field max 7
statistic Basic.rack[13].node[9].app 	throughput
field count 30647
field mean 15324
field stddev 8847.1711863171
field sum 469634628
field sqrsum 9595418174420
field min 1
field max 30647
statistic Basic.rack[13].node[9].app 	"End-to-End Delay"
field count 30647
field mean 0.00042535107076376
field stddev 1.7493364936195e-005
field sum 13.035734265697
field sqrsum 0.0055541417501194
field min 0.000120835018
field max 0.000615030019
statistic Basic.rack[13].node[9].app 	hops
field count 30647
field mean 6.2284073481907
field stddev 0.79881030940884
field sum 190882
field sqrsum 1208446
field min 5
field max 7
statistic Basic.rack[13].eps.queue[0] 	dropsum
field count 0
field mean nan
field stddev nan
field sum 0
field sqrsum 0
field min nan
field max nan
statistic Basic.rack[13].eps.queue[1] 	dropsum
field count 0
field mean nan
field stddev nan
field sum 0
field sqrsum 0
field min nan
field max nan
statistic Basic.rack[13].eps.queue[2] 	dropsum
field count 0
field mean nan
field stddev nan
field sum 0
field sqrsum 0
field min nan
field max nan
statistic Basic.rack[13].eps.queue[3] 	dropsum
field count 0
field mean nan
field stddev nan
field sum 0
field sqrsum 0
field min nan
field max nan
statistic Basic.rack[14].node[0].app 	throughput
field count 30561
field mean 15281
field stddev 8822.3451247387
field sum 467002641
field sqrsum 9514867475281
field min 1
field max 30561
statistic Basic.rack[14].node[0].app 	"End-to-End Delay"
field count 30561
field mean 0.00042510712543052
field stddev 1.7062317911039e-005
field sum 12.991698860282
field sqrsum 0.0055317604664361
field min 5.2422872e-005
field max 0.000599224484
statistic Basic.rack[14].node[0].app 	hops
field count 30561
field mean 6.2358888779817
field stddev 0.79701005972037
field sum 190575
field sqrsum 1207817
field min 5
field max 7
statistic Basic.rack[14].node[1].app 	throughput
field count 30426
field mean 15213.5
field stddev 8783.3739815631
field sum 462885951
field sqrsum 9389332925401
field min 1
field max 30426
statistic Basic.rack[14].node[1].app 	"End-to-End Delay"
field count 30426
field mean 0.00042491304409091
field stddev 1.6848753029271e-005
field sum 12.92840427951
field sqrsum 0.0055020846812072
field min 0.000159791307
field max 0.000591734219
statistic Basic.rack[14].node[1].app 	hops
field count 30426
field mean 6.2357851837244
field stddev 0.80243010312509
field sum 189730
field sqrsum 1202706
field min 5
field max 7
statistic Basic.rack[14].node[2].app 	throughput
field count 30405
field mean 15203
field stddev 8777.3118037358
field sum 462247215
field sqrsum 9369905130455
field min 1
field max 30405
statistic Basic.rack[14].node[2].app 	"End-to-End Delay"
field count 30405
field mean 0.00042510604897362
field stddev 1.6878978862128e-005
field sum 12.925349419043
field sqrsum 0.0055033063205264
field min 0.000247193148
field max 0.000624062934
statistic Basic.rack[14].node[2].app 	hops
field count 30405
field mean 6.2291728334156
field stddev 0.80009380815859
field sum 189398
field sqrsum 1199256
field min 5
field max 7
statistic Basic.rack[14].node[3].app 	throughput
field count 30653
field mean 15327
field stddev 8848.9032371249
field sum 469818531
field sqrsum 9601054893339
field min 1
field max 30653
statistic Basic.rack[14].node[3].app 	"End-to-End Delay"
field count 30653
field mean 0.00042493664946609
field stddev 1.6456918079323e-005
field sum 13.025583116084
field sqrsum 0.0055433491325304
field min 0.000393823868
field max 0.000617392545
statistic Basic.rack[14].node[3].app 	hops
field count 30653
field mean 6.2352461423025
field stddev 0.80145372427874
field sum 191129
field sqrsum 1211425
field min 5
field max 7
statistic Basic.rack[14].node[4].app 	throughput
field count 30598
field mean 15299.5
field stddev 8833.0261047201
field sum 468134101
field sqrsum 9549467526299
field min 1
field max 30598
statistic Basic.rack[14].node[4].app 	"End-to-End Delay"
field count 30598
field mean 0.00042519616006624
field stddev 1.7145696965398e-005
field sum 13.010152105707
field sqrsum 0.0055408614679871
field min 2.6152446e-005
field max 0.000600166916
statistic Basic.rack[14].node[4].app 	hops
field count 30598
field mean 6.2317144911432
field stddev 0.79850876345314
field sum 190678
field sqrsum 1207760
field min 5
field max 7
statistic Basic.rack[14].node[5].app 	throughput
field count 30466
field mean 15233.5
field stddev 8794.9209869485
field sum 464103811
field sqrsum 9426412505221
field min 1
field max 30466
statistic Basic.rack[14].node[5].app 	"End-to-End Delay"
field count 30466
field mean 0.00042519094413776
field stddev 1.7092342559533e-005
field sum 12.953867304101
field sqrsum 0.0055167673633921
field min 8.5794825e-005
field max 0.000596506433
statistic Basic.rack[14].node[5].app 	hops
field count 30466
field mean 6.2251690408981
field stddev 0.80224820278727
field sum 189656
field sqrsum 1200248
field min 5
field max 7
statistic Basic.rack[14].node[6].app 	throughput
field count 30657
field mean 15329
field stddev 8850.0579376635
field sum 469941153
field sqrsum 9604813932065
field min 1
field max 30657
statistic Basic.rack[14].node[6].app 	"End-to-End Delay"
field count 30657
field mean 0.00042516168391193
field stddev 1.7294967296797e-005
field sum 13.034181743688
field sqrsum 0.0055508043554008
field min 6.8101091e-005
field max 0.000628224524
statistic Basic.rack[14].node[6].app 	hops
field count 30657
field mean 6.2336171184395
field stddev 0.7996940102962
field sum 191104
field sqrsum 1210874
field min 5
field max 7
statistic Basic.rack[14].node[7].app 	throughput
field count 30631
field mean 15316
field stddev 8842.552384163
field sum 469144396
field sqrsum 9580397710716
field min 1
field max 30631
statistic Basic.rack[14].node[7].app 	"End-to-End Delay"
field count 30631
field mean 0.00042498340463273
field stddev 1.6755217583443e-005
field sum 13.017666667305
field sqrsum 0.0055408912846426
field min 0.000200298987
field max 0.000612569241
statistic Basic.rack[14].node[7].app 	hops
field count 30631
field mean 6.2285919493324
field stddev 0.80407465366744
field sum 190788
field sqrsum 1208144
field min 5
field max 7
statistic Basic.rack[14].node[8].app 	throughput
field count 30442
field mean 15221.5
field stddev 8787.9927837173
field sum 463372903
field sqrsum 9404153066385
field min 1
field max 30442
statistic Basic.rack[14].node[8].app 	"End-to-End Delay"
field count 30442
field mean 0.00042520173587366
field stddev 1.6878125220037e-005
field sum 12.943991243466
field sqrsum 0.0055124793073434
field min 0.000212705764
field max 0.000581561268
statistic Basic.rack[14].node[8].app 	hops
field count 30442
field mean 6.2295841271927
field stddev 0.79728928202975
field sum 189641
field sqrsum 1200735
field min 5
field max 7
statistic Basic.rack[14].node[9].app 	throughput
field count 30519
field mean 15260
field stddev 8810.2207690841
field sum 465719940
field sqrsum 9475693139220
field min 1
field max 30519
statistic Basic.rack[14].node[9].app 	"End-to-End Delay"
field count 30519
field mean 0.00042520175727121
field stddev 1.7089821817759e-005
field sum 12.97673243016
field sqrsum 0.0055266425813562
field min 0.000103601283
field max 0.000611341727
statistic Basic.rack[14].node[9].app 	hops
field count 30519
field mean 6.2310691700252
field stddev 0.80063421459842
field sum 190166
field sqrsum 1204500
field min 5
field max 7
statistic Basic.rack[14].eps.queue[0] 	dropsum
field count 0
field mean nan
field stddev nan
field sum 0
field sqrsum 0
field min nan
field max nan
statistic Basic.rack[14].eps.queue[1] 	dropsum
field count 2279452
field mean 1139726.5
field stddev 658021.25724143
field sum 2597951849878
field sqrsum 3.9479385593938e+018
field min 1
field max 2279452
statistic Basic.rack[14].eps.queue[2] 	dropsum
field count 0
field mean nan
field stddev nan
field sum 0
field sqrsum 0
field min nan
field max nan
statistic Basic.rack[14].eps.queue[3] 	dropsum
field count 0
field mean nan
field stddev nan
field sum 0
field sqrsum 0
field min nan
field max nan
statistic Basic.rack[15].node[0].app 	throughput
field count 34403
field mean 17202
field stddev 9931.4349919838
field sum 591800406
field sqrsum 13573336845214
field min 1
field max 34403
statistic Basic.rack[15].node[0].app 	"End-to-End Delay"
field count 34403
field mean 0.00042455529861105
field stddev 1.7041582819868e-005
field sum 14.605975938116
field sqrsum 0.0062110353514919
field min 0.000393820361
field max 0.000614644229
statistic Basic.rack[15].node[0].app 	hops
field count 34403
field mean 4.2335261459756
field stddev 0.79545557818318
field sum 145646
field sqrsum 638364
field min 3
field max 5
statistic Basic.rack[15].node[1].app 	throughput
field count 34460
field mean 17230.5
field stddev 9947.8894746574
field sum 593763030
field sqrsum 13640913930210
field min 1
field max 34460
statistic Basic.rack[15].node[1].app 	"End-to-End Delay"
field count 34460
field mean 0.00042432265250717
field stddev 1.6342636763705e-005
field sum 14.622158605397
field sqrsum 0.0062137164957552
field min 0.000279408749
field max 0.000578955965
statistic Basic.rack[15].node[1].app 	hops
field count 34460
field mean 4.226494486361
field stddev 0.79773778595845
field sum 145645
field sqrsum 637497
field min 3
field max 5
statistic Basic.rack[15].node[2].app 	throughput
field count 34342
field mean 17171.5
field stddev 9913.8258087716
field sum 589703653
field sqrsum 13501265135435
field min 1
field max 34342
statistic Basic.rack[15].node[2].app 	"End-to-End Delay"
field count 34342
field mean 0.00042442976753174
field stddev 1.7178827139136e-005
field sum 14.575767076575
field sqrsum 0.006196523876598
field min 0.000125234338
field max 0.000625265126
statistic Basic.rack[15].node[2].app 	hops
field count 34342
field mean 4.2321064585639
field stddev 0.79691170702774
field sum 145339
field sqrsum 636899
field min 3
field max 5
statistic Basic.rack[15].node[3].app 	throughput
field count 34335
field mean 17168
field stddev 9911.8050828293
field sum 589463280
field sqrsum 13493010966960
field min 1
field max 34335
statistic Basic.rack[15].node[3].app 	"End-to-End Delay"
field count 34335
field mean 0.0004246343179274
field stddev 1.7383979609479e-005
field sum 14.579819306037
field sqrsum 0.0062014674556414
field min 0.000122373181
field max 0.000648441112
statistic Basic.rack[15].node[3].app 	hops
field count 34335
field mean 4.2262414445901
field stddev 0.79669462745988
field sum 145108
field sqrsum 635054
field min 3
field max 5
statistic Basic.rack[15].node[4].app 	throughput
field count 34537
field mean 17269
field stddev 9970.1174600236
field sum 596419453
field sqrsum 13732557905325
field min 1
field max 34537
statistic Basic.rack[15].node[4].app 	"End-to-End Delay"
field count 34537
field mean 0.00042458424193222
field stddev 1.7061484572925e-005
field sum 14.663865963613
field sqrsum 0.0062360996451758
field min 0.000387049025
field max 0.000613957343
statistic Basic.rack[15].node[4].app 	hops
field count 34537
field mean 4.2285954194053
field stddev 0.79530267568512
field sum 146043
field sqrsum 639401
field min 3
field max 5
statistic Basic.rack[15].node[5].app 	throughput
field count 34617
field mean 17309
field stddev 9993.2114707936
field sum 599185653
field sqrsum 13828206228485
field min 1
field max 34617
statistic Basic.rack[15].node[5].app 	"End-to-End Delay"
field count 34617
field mean 0.00042474472427261
field stddev 1.7347851454197e-005
field sum 14.703388120145
field sqrsum 0.006255604147204
field min 0.000144338014
field max 0.000628634765
statistic Basic.rack[15].node[5].app 	hops
field count 34617
field mean 4.2319091775717
field stddev 0.79332772496739
field sum 146496
field sqrsum 641744
field min 3
field max 5
statistic Basic.rack[15].node[6].app 	throughput
field count 34818
field mean 17409.5
field stddev 10051.235172853
field sum 606163971
field sqrsum 14070480149509
field min 1
field max 34818
statistic Basic.rack[15].node[6].app 	"End-to-End Delay"
field count 34818
field mean 0.00042443608166741
field stddev 1.7092093853712e-005
field sum 14.778015491496
field sqrsum 0.0062824944170015
field min 1.9423977e-005
field max 0.000630547598
statistic Basic.rack[15].node[6].app 	hops
field count 34818
field mean 4.2281291286116
field stddev 0.79615084735182
field sum 147215
field sqrsum 644513
field min 3
field max 5
statistic Basic.rack[15].node[7].app 	throughput
field count 34683
field mean 17342
field stddev 10012.264029679
field sum 601472586
field sqrsum 13907449624354
field min 1
field max 34683
statistic Basic.rack[15].node[7].app 	"End-to-End Delay"
field count 34683
field mean 0.0004244761170015
field stddev 1.7013496867928e-005
field sum 14.722105165963
field sqrsum 0.0062592210545983
field min 7.7849543e-005
field max 0.000606650916
statistic Basic.rack[15].node[7].app 	hops
field count 34683
field mean 4.230977712424
field stddev 0.79707812144188
field sum 146743
field sqrsum 642901
field min 3
field max 5
statistic Basic.rack[15].node[8].app 	throughput
field count 34236
field mean 17118.5
field stddev 9883.2262445013
field sum 586068966
field sqrsum 13376633436306
field min 1
field max 34236
statistic Basic.rack[15].node[8].app 	"End-to-End Delay"
field count 34236
field mean 0.00042450263325447
field stddev 1.7117783588562e-005
field sum 14.5332721521
field sqrsum 0.0061794437872308
field min 8.0798812e-005
field max 0.000611340015
statistic Basic.rack[15].node[8].app 	hops
field count 34236
field mean 4.2318027806987
field stddev 0.79766002774307
field sum 144880
field sqrsum 634886
field min 3
field max 5
statistic Basic.rack[15].node[9].app 	throughput
field count 34683
field mean 17342
field stddev 10012.264029679
field sum 601472586
field sqrsum 13907449624354
field min 1
field max 34683
statistic Basic.rack[15].node[9].app 	"End-to-End Delay"
field count 34683
field mean 0.00042458408906897
field stddev 1.6884297204989e-005
field sum 14.725849961179
field sqrsum 0.0062622487184787
field min 0.000394383168
field max 0.00060165665
statistic Basic.rack[15].node[9].app 	hops
field count 34683
field mean 4.2304587261771
field stddev 0.79458375345996
field sum 146725
field sqrsum 642611
field min 3
field max 5
statistic Basic.rack[15].eps.queue[0] 	dropsum
field count 0
field mean nan
field stddev nan
field sum 0
field sqrsum 0
field min nan
field max nan
statistic Basic.rack[15].eps.queue[1] 	dropsum
field count 0
field mean nan
field stddev nan
field sum 0
field sqrsum 0
field min nan
field max nan
statistic Basic.rack[15].eps.queue[2] 	dropsum
field count 0
field mean nan
field stddev nan
field sum 0
field sqrsum 0
field min nan
field max nan
statistic Basic.rack[15].eps.queue[3] 	dropsum
field count 0
field mean nan
field stddev nan
field sum 0
field sqrsum 0
field min nan
field max nan
