version 2
run Basic-0-20180510-11:26:57-18168
attr configname Basic
attr datetime 20180510-11:26:57
attr experiment Basic
attr inifile omnetpp.ini
attr iterationvars ""
attr iterationvarsf ""
attr measurement ""
attr network Networks.Basic
attr processid 18168
attr repetition 0
attr replication #0
attr resultdir results
attr runnumber 0
attr seedset 0
param **.frameCapacity 50
param **.packetLength "1024 bytes"
param **.pattern 4
param **.sendIaTime "exponential(0.1 ms)"
param **.tp 2

statistic Basic.rack[0].node[0].app 	throughput
field count 123566
field mean 61783.5
field stddev 35670.576018618
field sum 7634339961
field sqrsum 6.2889911252727e+014
field min 1
field max 123566
statistic Basic.rack[0].node[0].app 	"End-to-End Delay"
field count 123566
field mean 0.00076031271509856
field stddev 0.00022890107117434
field sum 93.948800953869
field sqrsum 0.077904742651534
field min 0.000141353729
field max 0.001260653086
statistic Basic.rack[0].node[0].app 	hops
field count 123566
field mean 5.3756049398702
field stddev 0.72161299521319
field sum 664242
field sqrsum 3635046
field min 4
field max 6
statistic Basic.rack[0].node[1].app 	throughput
field count 123760
field mean 61880.5
field stddev 35726.57899473
field sum 7658330680
field sqrsum 6.3186588941476e+014
field min 1
field max 123760
statistic Basic.rack[0].node[1].app 	"End-to-End Delay"
field count 123760
field mean 0.00076036407917962
field stddev 0.00022895580485036
field sum 94.10265843927
field sqrsum 0.078039822140492
field min 0.000230679408
field max 0.001260771673
statistic Basic.rack[0].node[1].app 	hops
field count 123760
field mean 5.3752424046542
field stddev 0.72252667952355
field sum 665240
field sqrsum 3640434
field min 4
field max 6
statistic Basic.rack[0].node[2].app 	throughput
field count 124165
field mean 62083
field stddev 35843.492424242
field sum 7708535695
field sqrsum 6.3808945922502e+014
field min 1
field max 124165
statistic Basic.rack[0].node[2].app 	"End-to-End Delay"
field count 124165
field mean 0.00076135682765536
field stddev 0.00022924146200928
field sum 94.533870505828
field sqrsum 0.078499030564672
field min 0.000175293392
field max 0.001261154221
statistic Basic.rack[0].node[2].app 	hops
field count 124165
field mean 5.3747030161479
field stddev 0.72318833685012
field sum 667350
field sqrsum 3651746
field min 4
field max 6
statistic Basic.rack[0].node[3].app 	throughput
field count 123991
field mean 61996
field stddev 35793.262950822
field sum 7686946036
field sqrsum 6.354106462818e+014
field min 1
field max 123991
statistic Basic.rack[0].node[3].app 	"End-to-End Delay"
field count 123991
field mean 0.00076095442297053
field stddev 0.00022942974208794
field sum 94.351499858539
field sqrsum 0.078323777563956
field min 0.000424899633
field max 0.00126095958
statistic Basic.rack[0].node[3].app 	hops
field count 123991
field mean 5.3779871119678
field stddev 0.72177585446639
field sum 666822
field sqrsum 3650754
field min 4
field max 6
statistic Basic.rack[0].node[4].app 	throughput
field count 123640
field mean 61820.5
field stddev 35691.937978578
field sum 7643486620
field sqrsum 6.3002967162674e+014
field min 1
field max 123640
statistic Basic.rack[0].node[4].app 	"End-to-End Delay"
field count 123640
field mean 0.00076101352157928
field stddev 0.00022879003650502
field sum 94.091711808062
field sqrsum 0.078076933672198
field min 0.000224703651
field max 0.001260893578
statistic Basic.rack[0].node[4].app 	hops
field count 123640
field mean 5.376237463604
field stddev 0.71989736453646
field sum 664718
field sqrsum 3637758
field min 4
field max 6
statistic Basic.rack[0].node[5].app 	throughput
field count 123351
field mean 61676
field stddev 35608.51086468
field sum 7607796276
field sqrsum 6.2562205489268e+014
field min 1
field max 123351
statistic Basic.rack[0].node[5].app 	"End-to-End Delay"
field count 123351
field mean 0.00076055414337469
field stddev 0.00022870529552333
field sum 93.815114139411
field sqrsum 0.077803432709819
field min 0.000118722592
field max 0.001260898748
statistic Basic.rack[0].node[5].app 	hops
field count 123351
field mean 5.3795105025496
field stddev 0.72108200712424
field sum 663568
field sqrsum 3633808
field min 4
field max 6
statistic Basic.rack[0].node[6].app 	throughput
field count 123317
field mean 61659
field stddev 35598.695910103
field sum 7603602903
field sqrsum 6.2510486732714e+014
field min 1
field max 123317
statistic Basic.rack[0].node[6].app 	"End-to-End Delay"
field count 123317
field mean 0.00076080142087636
field stddev 0.00022927314932419
field sum 93.81974881821
field sqrsum 0.077860448890217
field min 6.2075786e-005
field max 0.001260185621
statistic Basic.rack[0].node[6].app 	hops
field count 123317
field mean 5.3764525572306
field stddev 0.72103503525892
field sum 663008
field sqrsum 3628742
field min 4
field max 6
statistic Basic.rack[0].node[7].app 	throughput
field count 124259
field mean 62130
field stddev 35870.627886894
field sum 7720211670
field sqrsum 6.3953976133891e+014
field min 1
field max 124259
statistic Basic.rack[0].node[7].app 	"End-to-End Delay"
field count 124259
field mean 0.00076002170494297
field stddev 0.00022952380561216
field sum 94.439537034509
field sqrsum 0.07832215568524
field min 4.1528324e-005
field max 0.001259860145
statistic Basic.rack[0].node[7].app 	hops
field count 124259
field mean 5.3736550270001
field stddev 0.7232222369155
field sum 667725
field sqrsum 3653117
field min 4
field max 6
statistic Basic.rack[0].node[8].app 	throughput
field count 123419
field mean 61710
field stddev 35628.140773832
field sum 7616186490
field sqrsum 6.2665728566837e+014
field min 1
field max 123419
statistic Basic.rack[0].node[8].app 	"End-to-End Delay"
field count 123419
field mean 0.00076083255451598
field stddev 0.00022904698834862
field sum 93.901193045808
field sqrsum 0.077917904224904
field min 0.000424899553
field max 0.001261048919
statistic Basic.rack[0].node[8].app 	hops
field count 123419
field mean 5.3776890106061
field stddev 0.72168893746228
field sum 663709
field sqrsum 3633501
field min 4
field max 6
statistic Basic.rack[0].node[9].app 	throughput
field count 123619
field mean 61810
field stddev 35685.875800752
field sum 7640890390
field sqrsum 6.2970869971107e+014
field min 1
field max 123619
statistic Basic.rack[0].node[9].app 	"End-to-End Delay"
field count 123619
field mean 0.00076057536719948
field stddev 0.00022856546648055
field sum 94.021566317833
field sqrsum 0.07796856020294
field min 8.5279551e-005
field max 0.001260512167
statistic Basic.rack[0].node[9].app 	hops
field count 123619
field mean 5.3742790347762
field stddev 0.72198191678416
field sum 664363
field sqrsum 3634909
field min 4
field max 6
statistic Basic.rack[0].eps.queue[0] 	dropsum
field count 0
field mean nan
field stddev nan
field sum 0
field sqrsum 0
field min nan
field max nan
statistic Basic.rack[0].eps.queue[1] 	dropsum
field count 11577
field mean 5789
field stddev 3342.1363676547
field sum 67019253
field sqrsum 517276934405
field min 1
field max 11577
statistic Basic.rack[0].eps.queue[2] 	dropsum
field count 0
field mean nan
field stddev nan
field sum 0
field sqrsum 0
field min nan
field max nan
statistic Basic.rack[0].eps.queue[3] 	dropsum
field count 0
field mean nan
field stddev nan
field sum 0
field sqrsum 0
field min nan
field max nan
statistic Basic.rack[1].node[0].app 	throughput
field count 209223
field mean 104612
field stddev 60397.622022725
field sum 21887236476
field sqrsum 3.0528828138909e+015
field min 1
field max 209223
statistic Basic.rack[1].node[0].app 	"End-to-End Delay"
field count 209223
field mean 0.00025539174158648
field stddev 0.00039488660797362
field sum 53.433826349948
field sqrsum 0.046271681167099
field min 9.4416e-006
field max 0.001261063956
statistic Basic.rack[1].node[0].app 	hops
field count 209223
field mean 5.5585523580104
field stddev 0.49656097298129
field sum 1162977
field sqrsum 6516057
field min 5
field max 6
statistic Basic.rack[1].node[1].app 	throughput
field count 209474
field mean 104737.5
field stddev 60470.079481509
field sum 21939783075
field sqrsum 3.0638833931627e+015
field min 1
field max 209474
statistic Basic.rack[1].node[1].app 	"End-to-End Delay"
field count 209474
field mean 0.00025440888824873
field stddev 0.00039437725007231
field sum 53.292047457015
field sqrsum 0.046138021664801
field min 9.4416e-006
field max 0.001261125719
statistic Basic.rack[1].node[1].app 	hops
field count 209474
field mean 5.558002425122
field stddev 0.49662550890033
field sum 1164257
field sqrsum 6522607
field min 5
field max 6
statistic Basic.rack[1].node[2].app 	throughput
field count 208408
field mean 104204.5
field stddev 60162.35178803
field sum 21717051436
field sqrsum 3.0173454094664e+015
field min 1
field max 208408
statistic Basic.rack[1].node[2].app 	"End-to-End Delay"
field count 208408
field mean 0.00025398878931461
field stddev 0.00039441868164211
field sum 52.933295603479
field sqrsum 0.045865527123093
field min 9.4416e-006
field max 0.001261185551
statistic Basic.rack[1].node[2].app 	hops
field count 208408
field mean 5.556120686346
field stddev 0.49684167802981
field sum 1157940
field sqrsum 6485100
field min 5
field max 6
statistic Basic.rack[1].node[3].app 	throughput
field count 208837
field mean 104419
field stddev 60286.193420771
field sum 21806550703
field sqrsum 3.0360170216252e+015
field min 1
field max 208837
statistic Basic.rack[1].node[3].app 	"End-to-End Delay"
field count 208837
field mean 0.0002561403701971
field stddev 0.00039564843675403
field sum 53.491586490853
field sqrsum 0.046392058856509
field min 9.4416e-006
field max 0.001261035417
statistic Basic.rack[1].node[3].app 	hops
field count 208837
field mean 5.5566494443035
field stddev 0.49678166452158
field sum 1160434
field sqrsum 6499664
field min 5
field max 6
statistic Basic.rack[1].node[4].app 	throughput
field count 209121
field mean 104561
field stddev 60368.177158997
field sum 21865900881
field sqrsum 3.0484199940574e+015
field min 1
field max 209121
statistic Basic.rack[1].node[4].app 	"End-to-End Delay"
field count 209121
field mean 0.00025558924990581
field stddev 0.00039553208382797
field sum 53.449079529553
field sqrsum 0.046376920152131
field min 9.4416e-006
field max 0.001260302018
statistic Basic.rack[1].node[4].app 	hops
field count 209121
field mean 5.5577536450189
field stddev 0.49665450367714
field sum 1162243
field sqrsum 6511043
field min 5
field max 6
statistic Basic.rack[1].node[5].app 	throughput
field count 209470
field mean 104735.5
field stddev 60468.92478097
field sum 21938945185
field sqrsum 3.0637078782497e+015
field min 1
field max 209470
statistic Basic.rack[1].node[5].app 	"End-to-End Delay"
field count 209470
field mean 0.00025526464357699
field stddev 0.00039461396492135
field sum 53.470284890071
field sqrsum 0.046267623873447
field min 9.4416e-006
field max 0.00126080639
statistic Basic.rack[1].node[5].app 	hops
field count 209470
field mean 5.5558027402492
field stddev 0.49687748269448
field sum 1163774
field sqrsum 6517414
field min 5
field max 6
statistic Basic.rack[1].node[6].app 	throughput
field count 208934
field mean 104467.5
field stddev 60314.194908827
field sum 21826812645
field sqrsum 3.0402494577178e+015
field min 1
field max 208934
statistic Basic.rack[1].node[6].app 	"End-to-End Delay"
field count 208934
field mean 0.00025559581937779
field stddev 0.0003952204151631
field sum 53.40265692588
field sqrsum 0.046284658410485
field min 9.4416e-006
field max 0.001260839203
statistic Basic.rack[1].node[6].app 	hops
field count 208934
field mean 5.5601098911618
field stddev 0.49637483845051
field sum 1161696
field sqrsum 6510636
field min 5
field max 6
statistic Basic.rack[1].node[7].app 	throughput
field count 209723
field mean 104862
field stddev 60541.959590023
field sum 21991973226
field sqrsum 3.0748223979087e+015
field min 1
field max 209723
statistic Basic.rack[1].node[7].app 	"End-to-End Delay"
field count 209723
field mean 0.00025462545312832
field stddev 0.00039486033740568
field sum 53.40081390643
field sqrsum 0.046295946227409
field min 9.4416e-006
field max 0.001260713818
statistic Basic.rack[1].node[7].app 	hops
field count 209723
field mean 5.5562623079014
field stddev 0.49682565319266
field sum 1165276
field sqrsum 6526346
field min 5
field max 6
statistic Basic.rack[1].node[8].app 	throughput
field count 209947
field mean 104974
field stddev 60606.622820173
field sum 22038976378
field sqrsum 3.0846853287468e+015
field min 1
field max 209947
statistic Basic.rack[1].node[8].app 	"End-to-End Delay"
field count 209947
field mean 0.0002553034845741
field stddev 0.00039467760665848
field sum 53.600200675879
field sqrsum 0.04638769317562
field min 9.4416e-006
field max 0.001261095251
statistic Basic.rack[1].node[8].app 	hops
field count 209947
field mean 5.555964124279
field stddev 0.49685932884272
field sum 1166458
field sqrsum 6532628
field min 5
field max 6
statistic Basic.rack[1].node[9].app 	throughput
field count 209686
field mean 104843.5
field stddev 60531.278610043
field sum 21984214141
field sqrsum 3.0731952789845e+015
field min 1
field max 209686
statistic Basic.rack[1].node[9].app 	"End-to-End Delay"
field count 209686
field mean 0.00025481190422415
field stddev 0.00039478419678637
field sum 53.430488949145
field sqrsum 0.046295088472494
field min 9.4416e-006
field max 0.001261187699
statistic Basic.rack[1].node[9].app 	hops
field count 209686
field mean 5.5580343942848
field stddev 0.49662177286386
field sum 1165442
field sqrsum 6529282
field min 5
field max 6
statistic Basic.rack[1].eps.queue[0] 	dropsum
field count 0
field mean nan
field stddev nan
field sum 0
field sqrsum 0
field min nan
field max nan
statistic Basic.rack[1].eps.queue[1] 	dropsum
field count 0
field mean nan
field stddev nan
field sum 0
field sqrsum 0
field min nan
field max nan
statistic Basic.rack[1].eps.queue[2] 	dropsum
field count 0
field mean nan
field stddev nan
field sum 0
field sqrsum 0
field min nan
field max nan
statistic Basic.rack[1].eps.queue[3] 	dropsum
field count 0
field mean nan
field stddev nan
field sum 0
field sqrsum 0
field min nan
field max nan
statistic Basic.rack[2].node[0].app 	throughput
field count 209621
field mean 104811
field stddev 60512.514726294
field sum 21970586631
field sqrsum 3.0703382169801e+015
field min 1
field max 209621
statistic Basic.rack[2].node[0].app 	"End-to-End Delay"
field count 209621
field mean 0.00020373499566411
field stddev 0.00032762703284678
field sum 42.707133526107
field sqrsum 0.031201437921078
field min 8.496e-007
field max 0.000834975185
statistic Basic.rack[2].node[0].app 	hops
field count 209621
field mean 4.8438992276537
field stddev 0.72969793154879
field sum 1015383
field sqrsum 5030027
field min 4
field max 6
statistic Basic.rack[2].node[1].app 	throughput
field count 208951
field mean 104476
field stddev 60319.102386115
field sum 21830364676
field sqrsum 3.0409916297315e+015
field min 1
field max 208951
statistic Basic.rack[2].node[1].app 	"End-to-End Delay"
field count 208951
field mean 0.00020392336393722
field stddev 0.00032778984527659
field sum 42.609990818047
field sqrsum 0.031140052533106
field min 8.496e-007
field max 0.00083510055
statistic Basic.rack[2].node[1].app 	hops
field count 208951
field mean 4.8441357064575
field stddev 0.72999461325494
field sum 1012187
field sqrsum 5014519
field min 4
field max 6
statistic Basic.rack[2].node[2].app 	throughput
field count 209405
field mean 104703
field stddev 60450.160897222
field sum 21925331715
field sqrsum 3.060856700297e+015
field min 1
field max 209405
statistic Basic.rack[2].node[2].app 	"End-to-End Delay"
field count 209405
field mean 0.00020164437622669
field stddev 0.00032612579089985
field sum 42.225340603751
field sqrsum 0.030786299693145
field min 8.496e-007
field max 0.000835096188
statistic Basic.rack[2].node[2].app 	hops
field count 209405
field mean 4.8398605572933
field stddev 0.72777403064125
field sum 1013491
field sqrsum 5016067
field min 4
field max 6
statistic Basic.rack[2].node[3].app 	throughput
field count 209379
field mean 104690
field stddev 60442.655343722
field sum 21919887510
field sqrsum 3.0597167246e+015
field min 1
field max 209379
statistic Basic.rack[2].node[3].app 	"End-to-End Delay"
field count 209379
field mean 0.00020258555739413
field stddev 0.00032671059977919
field sum 42.417161421626
field sqrsum 0.030942073485816
field min 8.496e-007
field max 0.000835002063
statistic Basic.rack[2].node[3].app 	hops
field count 209379
field mean 4.8407481170509
field stddev 0.72863909120405
field sum 1013551
field sqrsum 5017507
field min 4
field max 6
statistic Basic.rack[2].node[4].app 	throughput
field count 208935
field mean 104468
field stddev 60314.483583962
field sum 21827021580
field sqrsum 3.0402931115521e+015
field min 1
field max 208935
statistic Basic.rack[2].node[4].app 	"End-to-End Delay"
field count 208935
field mean 0.00020231435882015
field stddev 0.00032651844411637
field sum 42.270550560088
field sqrsum 0.03082729030888
field min 8.496e-007
field max 0.000835011026
statistic Basic.rack[2].node[4].app 	hops
field count 208935
field mean 4.8404719171034
field stddev 0.72833552347154
field sum 1011344
field sqrsum 5006216
field min 4
field max 6
statistic Basic.rack[2].node[5].app 	throughput
field count 209778
field mean 104889.5
field stddev 60557.836722426
field sum 22003509531
field sqrsum 3.0772421494326e+015
field min 1
field max 209778
statistic Basic.rack[2].node[5].app 	"End-to-End Delay"
field count 209778
field mean 0.00020130326110125
field stddev 0.00032579991386289
field sum 42.228995507299
field sqrsum 0.030767736656789
field min 8.496e-007
field max 0.000835037388
statistic Basic.rack[2].node[5].app 	hops
field count 209778
field mean 4.8373232655474
field stddev 0.7279542939352
field sum 1014764
field sqrsum 5019906
field min 4
field max 6
statistic Basic.rack[2].node[6].app 	throughput
field count 209346
field mean 104673.5
field stddev 60433.129064281
field sum 21912978531
field sqrsum 3.0582702400267e+015
field min 1
field max 209346
statistic Basic.rack[2].node[6].app 	"End-to-End Delay"
field count 209346
field mean 0.00020242731043161
field stddev 0.00032660812040265
field sum 42.377347729616
field sqrsum 0.030909763303726
field min 8.496e-007
field max 0.000835111927
statistic Basic.rack[2].node[6].app 	hops
field count 209346
field mean 4.8398679697725
field stddev 0.72888983623938
field sum 1013207
field sqrsum 5015009
field min 4
field max 6
statistic Basic.rack[2].node[7].app 	throughput
field count 209987
field mean 104994
field stddev 60618.169825556
field sum 22047375078
field sqrsum 3.0864487827944e+015
field min 1
field max 209987
statistic Basic.rack[2].node[7].app 	"End-to-End Delay"
field count 209987
field mean 0.00020159762154059
field stddev 0.00032617908512066
field sum 42.332879754444
field sqrsum 0.030875205442053
field min 8.496e-007
field max 0.000835088264
statistic Basic.rack[2].node[7].app 	hops
field count 209987
field mean 4.8375804216451
field stddev 0.72869731078797
field sum 1015829
field sqrsum 5025657
field min 4
field max 6
statistic Basic.rack[2].node[8].app 	throughput
field count 208848
field mean 104424.5
field stddev 60289.368847252
field sum 21808847976
field sqrsum 3.0364967910104e+015
field min 1
field max 208848
statistic Basic.rack[2].node[8].app 	"End-to-End Delay"
field count 208848
field mean 0.00020397329015341
field stddev 0.00032746919323061
field sum 42.599413701959
field sqrsum 0.031085074607957
field min 8.496e-007
field max 0.000835076132
statistic Basic.rack[2].node[8].app 	hops
field count 208848
field mean 4.844360491841
field stddev 0.72888202373323
field sum 1011735
field sqrsum 5012163
field min 4
field max 6
statistic Basic.rack[2].node[9].app 	throughput
field count 209732
field mean 104866.5
field stddev 60544.557666235
field sum 21993860778
field sqrsum 3.0752182704146e+015
field min 1
field max 209732
statistic Basic.rack[2].node[9].app 	"End-to-End Delay"
field count 209732
field mean 0.00020278548511497
field stddev 0.00032668596710924
field sum 42.530605364133
field sqrsum 0.031007862192303
field min 8.496e-007
field max 0.000835041661
statistic Basic.rack[2].node[9].app 	hops
field count 209732
field mean 4.8409112581771
field stddev 0.72849029418505
field sum 1015294
field sqrsum 5026252
field min 4
field max 6
statistic Basic.rack[2].eps.queue[0] 	dropsum
field count 0
field mean nan
field stddev nan
field sum 0
field sqrsum 0
field min nan
field max nan
statistic Basic.rack[2].eps.queue[1] 	dropsum
field count 5331351
field mean 2665676
field stddev 1539028.6118394
field sum 14211654408276
field sqrsum 5.0511550031439e+019
field min 1
field max 5331351
statistic Basic.rack[2].eps.queue[2] 	dropsum
field count 0
field mean nan
field stddev nan
field sum 0
field sqrsum 0
field min nan
field max nan
statistic Basic.rack[2].eps.queue[3] 	dropsum
field count 0
field mean nan
field stddev nan
field sum 0
field sqrsum 0
field min nan
field max nan
statistic Basic.rack[3].node[0].app 	throughput
field count 126993
field mean 63497
field stddev 36659.865704882
field sum 8063674521
field sqrsum 6.8268950018841e+014
field min 1
field max 126993
statistic Basic.rack[3].node[0].app 	"End-to-End Delay"
field count 126993
field mean 0.00046967360609163
field stddev 9.4343934071002e-005
field sum 59.645260258395
field sqrsum 0.029144132058402
field min 0.00010346832
field max 0.000978010595
statistic Basic.rack[3].node[0].app 	hops
field count 126993
field mean 4.281039112392
field stddev 0.79791464140467
field sum 543662
field sqrsum 2408290
field min 3
field max 5
statistic Basic.rack[3].node[1].app 	throughput
field count 127536
field mean 63768.5
field stddev 36816.616302968
field sum 8132779416
field sqrsum 6.9148414799246e+014
field min 1
field max 127536
statistic Basic.rack[3].node[1].app 	"End-to-End Delay"
field count 127536
field mean 0.00046944129758371
field stddev 9.3978535084028e-005
field sum 59.870665328636
field sqrsum 0.029232147482561
field min 0.00020991827
field max 0.000963601234
statistic Basic.rack[3].node[1].app 	hops
field count 127536
field mean 4.2830259691381
field stddev 0.79688446648593
field sum 546240
field sqrsum 2420548
field min 3
field max 5
statistic Basic.rack[3].node[2].app 	throughput
field count 128068
field mean 64034.5
field stddev 36970.191474574
field sum 8200770346
field sqrsum 7.0017357137113e+014
field min 1
field max 128068
statistic Basic.rack[3].node[2].app 	"End-to-End Delay"
field count 128068
field mean 0.00046920504735888
field stddev 9.3716446968796e-005
field sum 60.090152005157
field sqrsum 0.029319385934489
field min 2.962543e-005
field max 0.000947848631
statistic Basic.rack[3].node[2].app 	hops
field count 128068
field mean 4.2807727144954
field stddev 0.79715999139473
field sum 548230
field sqrsum 2428230
field min 3
field max 5
statistic Basic.rack[3].node[3].app 	throughput
field count 126915
field mean 63458
field stddev 36637.349044384
field sum 8053772070
field sqrsum 6.8143233943339e+014
field min 1
field max 126915
statistic Basic.rack[3].node[3].app 	"End-to-End Delay"
field count 126915
field mean 0.00046964541824314
field stddev 9.4046663382171e-005
field sum 59.605048256328
field sqrsum 0.029115763578556
field min 0.000205483623
field max 0.000944662861
statistic Basic.rack[3].node[3].app 	hops
field count 126915
field mean 4.2822361423
field stddev 0.79786648678283
field sum 543480
field sqrsum 2408102
field min 3
field max 5
statistic Basic.rack[3].node[4].app 	throughput
field count 127759
field mean 63880
field stddev 36880.990857984
field sum 8161244920
field sqrsum 6.9511771357116e+014
field min 1
field max 127759
statistic Basic.rack[3].node[4].app 	"End-to-End Delay"
field count 127759
field mean 0.0004695396556663
field stddev 9.3972921336937e-005
field sum 59.987916868271
field sqrsum 0.029294925223169
field min 3.7428505e-005
field max 0.000956916862
statistic Basic.rack[3].node[4].app 	hops
field count 127759
field mean 4.2791584154541
field stddev 0.79867655716556
field sum 546701
field sqrsum 2420915
field min 3
field max 5
statistic Basic.rack[3].node[5].app 	throughput
field count 127671
field mean 63836
field stddev 36855.587446139
field sum 8150005956
field sqrsum 6.9368232360764e+014
field min 1
field max 127671
statistic Basic.rack[3].node[5].app 	"End-to-End Delay"
field count 127671
field mean 0.00046931997542313
field stddev 9.386741350833e-005
field sum 59.918550582246
field sqrsum 0.029245884715314
field min 9.9660726e-005
field max 0.000983080064
statistic Basic.rack[3].node[5].app 	hops
field count 127671
field mean 4.2748627331187
field stddev 0.79778280601437
field sum 545776
field sqrsum 2414374
field min 3
field max 5
statistic Basic.rack[3].node[6].app 	throughput
field count 127666
field mean 63833.5
field stddev 36854.144070466
field sum 8149367611
field sqrsum 6.9360082673982e+014
field min 1
field max 127666
statistic Basic.rack[3].node[6].app 	"End-to-End Delay"
field count 127666
field mean 0.00047013050807562
field stddev 9.4440946790683e-005
field sum 60.019681443982
field sqrsum 0.029355739266964
field min 0.000163633388
field max 0.000962981224
statistic Basic.rack[3].node[6].app 	hops
field count 127666
field mean 4.2750536556327
field stddev 0.79863241742497
field sum 545779
field sqrsum 2414661
field min 3
field max 5
statistic Basic.rack[3].node[7].app 	throughput
field count 126711
field mean 63356
field stddev 36578.459316926
field sum 8027902116
field sqrsum 6.7815167931436e+014
field min 1
field max 126711
statistic Basic.rack[3].node[7].app 	"End-to-End Delay"
field count 126711
field mean 0.00046968782078685
field stddev 9.4057637296367e-005
field sum 59.514613459722
field sqrsum 0.029074272087509
field min 0.000175068917
field max 0.001003389184
statistic Basic.rack[3].node[7].app 	hops
field count 126711
field mean 4.2778053996891
field stddev 0.79856617289235
field sum 542045
field sqrsum 2399567
field min 3
field max 5
statistic Basic.rack[3].node[8].app 	throughput
field count 127860
field mean 63930.5
field stddev 36910.147046578
field sum 8174153730
field sqrsum 6.9676758866311e+014
field min 1
field max 127860
statistic Basic.rack[3].node[8].app 	"End-to-End Delay"
field count 127860
field mean 0.00046963626957617
field stddev 9.4170793140426e-005
field sum 60.047693428008
field sqrsum 0.029334446030615
field min 3.0755616e-005
field max 0.000966706948
statistic Basic.rack[3].node[8].app 	hops
field count 127860
field mean 4.281073048647
field stddev 0.7976454921283
field sum 547378
field sqrsum 2424714
field min 3
field max 5
statistic Basic.rack[3].node[9].app 	throughput
field count 127424
field mean 63712.5
field stddev 36784.284687894
field sum 8118501600
field sqrsum 6.896640047528e+014
field min 1
field max 127424
statistic Basic.rack[3].node[9].app 	"End-to-End Delay"
field count 127424
field mean 0.00046996526477329
field stddev 9.4496763031372e-005
field sum 59.884853898472
field sqrsum 0.029281642509646
field min 0.000369256406
field max 0.000970138464
statistic Basic.rack[3].node[9].app 	hops
field count 127424
field mean 4.2807948267202
field stddev 0.79807712284548
field sum 545476
field sqrsum 2416230
field min 3
field max 5
statistic Basic.rack[3].eps.queue[0] 	dropsum
field count 0
field mean nan
field stddev nan
field sum 0
field sqrsum 0
field min nan
field max nan
statistic Basic.rack[3].eps.queue[1] 	dropsum
field count 0
field mean nan
field stddev nan
field sum 0
field sqrsum 0
field min nan
field max nan
statistic Basic.rack[3].eps.queue[2] 	dropsum
field count 0
field mean nan
field stddev nan
field sum 0
field sqrsum 0
field min nan
field max nan
statistic Basic.rack[3].eps.queue[3] 	dropsum
field count 0
field mean nan
field stddev nan
field sum 0
field sqrsum 0
field min nan
field max nan
statistic Basic.rack[4].node[0].app 	throughput
field count 205218
field mean 102609.5
field stddev 59241.47810867
field sum 21057316371
field sqrsum 2.8809005864547e+015
field min 1
field max 205218
statistic Basic.rack[4].node[0].app 	"End-to-End Delay"
field count 205218
field mean 0.00016975635302599
field stddev 0.00017995127170896
field sum 34.837059255287
field sqrsum 0.012559243462072
field min 8.496e-007
field max 0.00042781854
statistic Basic.rack[4].node[0].app 	hops
field count 205218
field mean 4.6348907015954
field stddev 0.70711351947006
field sum 951163
field sqrsum 4511147
field min 4
field max 6
statistic Basic.rack[4].node[1].app 	throughput
field count 205342
field mean 102671.5
field stddev 59277.27382536
field sum 21082771153
field sqrsum 2.8861259569899e+015
field min 1
field max 205342
statistic Basic.rack[4].node[1].app 	"End-to-End Delay"
field count 205342
field mean 0.00016978649004708
field stddev 0.00018007527691767
field sum 34.864297439247
field sqrsum 0.012578100931274
field min 8.496e-007
field max 0.000427924841
statistic Basic.rack[4].node[1].app 	hops
field count 205342
field mean 4.6340397970216
field stddev 0.70808300987334
field sum 951563
field sqrsum 4512535
field min 4
field max 6
statistic Basic.rack[4].node[2].app 	throughput
field count 204696
field mean 102348.5
field stddev 59090.789688411
field sum 20950328556
field sqrsum 2.8589726195088e+015
field min 1
field max 204696
statistic Basic.rack[4].node[2].app 	"End-to-End Delay"
field count 204696
field mean 0.00017007611475363
field stddev 0.00018004180132863
field sum 34.81390038561
field sqrsum 0.012556211622945
field min 8.496e-007
field max 0.000427809997
statistic Basic.rack[4].node[2].app 	hops
field count 204696
field mean 4.6359577129011
field stddev 0.70788290268445
field sum 948962
field sqrsum 4501920
field min 4
field max 6
statistic Basic.rack[4].node[3].app 	throughput
field count 205581
field mean 102791
field stddev 59346.267182528
field sum 21131876571
field sqrsum 2.8962152555207e+015
field min 1
field max 205581
statistic Basic.rack[4].node[3].app 	"End-to-End Delay"
field count 205581
field mean 0.00016981251465075
field stddev 0.00018000974423714
field sum 34.910226574417
field sqrsum 0.012589706540447
field min 8.496e-007
field max 0.000427771386
statistic Basic.rack[4].node[3].app 	hops
field count 205581
field mean 4.6341442059334
field stddev 0.70769775557425
field sum 952692
field sqrsum 4517874
field min 4
field max 6
statistic Basic.rack[4].node[4].app 	throughput
field count 205327
field mean 102664
field stddev 59272.943698341
field sum 21079691128
field sqrsum 2.8854935200563e+015
field min 1
field max 205327
statistic Basic.rack[4].node[4].app 	"End-to-End Delay"
field count 205327
field mean 0.00016969848447437
field stddev 0.0001802146656545
field sum 34.843680721669
field sqrsum 0.012581359192137
field min 8.496e-007
field max 0.000427823512
statistic Basic.rack[4].node[4].app 	hops
field count 205327
field mean 4.6315974031667
field stddev 0.70830738944107
field sum 950992
field sqrsum 4507624
field min 4
field max 6
statistic Basic.rack[4].node[5].app 	throughput
field count 205196
field mean 102598.5
field stddev 59235.127255709
field sum 21052801806
field sqrsum 2.8799741638566e+015
field min 1
field max 205196
statistic Basic.rack[4].node[5].app 	"End-to-End Delay"
field count 205196
field mean 0.00016989769179929
field stddev 0.0001802314517705
field sum 34.862326766448
field sqrsum 0.01258845522923
field min 8.496e-007
field max 0.000427746508
statistic Basic.rack[4].node[5].app 	hops
field count 205196
field mean 4.6324733425603
field stddev 0.70800382248423
field sum 950565
field sqrsum 4506325
field min 4
field max 6
statistic Basic.rack[4].node[6].app 	throughput
field count 205432
field mean 102716.5
field stddev 59303.254587473
field sum 21101256028
field sqrsum 2.8899225193147e+015
field min 1
field max 205432
statistic Basic.rack[4].node[6].app 	"End-to-End Delay"
field count 205432
field mean 0.00017045221810203
field stddev 0.0001803974074596
field sum 35.016340069136
field sqrsum 0.012654000011129
field min 8.496e-007
field max 0.000427839865
statistic Basic.rack[4].node[6].app 	hops
field count 205432
field mean 4.6346674325324
field stddev 0.70971424422018
field sum 952109
field sqrsum 4516183
field min 4
field max 6
statistic Basic.rack[4].node[7].app 	throughput
field count 205310
field mean 102655.5
field stddev 59268.036221053
field sum 21076200705
field sqrsum 2.8847768698959e+015
field min 1
field max 205310
statistic Basic.rack[4].node[7].app 	"End-to-End Delay"
field count 205310
field mean 0.00016934053188913
field stddev 0.00018000955502238
field sum 34.767304602157
field sqrsum 0.012540231695978
field min 8.496e-007
field max 0.000427795989
statistic Basic.rack[4].node[7].app 	hops
field count 205310
field mean 4.6326628025912
field stddev 0.7073535542279
field sum 951132
field sqrsum 4509000
field min 4
field max 6
statistic Basic.rack[4].node[8].app 	throughput
field count 205790
field mean 102895.5
field stddev 59406.600285658
field sum 21174864945
field sqrsum 2.905057362976e+015
field min 1
field max 205790
statistic Basic.rack[4].node[8].app 	"End-to-End Delay"
field count 205790
field mean 0.00017036246422292
field stddev 0.00018013174163018
field sum 35.058891512435
field sqrsum 0.012650046274827
field min 8.496e-007
field max 0.00042775334
statistic Basic.rack[4].node[8].app 	hops
field count 205790
field mean 4.6346323922445
field stddev 0.70857889597586
field sum 953761
field sqrsum 4523655
field min 4
field max 6
statistic Basic.rack[4].node[9].app 	throughput
field count 205527
field mean 102764
field stddev 59330.67872526
field sum 21120776628
field sqrsum 2.8939336122742e+015
field min 1
field max 205527
statistic Basic.rack[4].node[9].app 	"End-to-End Delay"
field count 205527
field mean 0.00016996211519785
field stddev 0.00018017120997299
field sum 34.931803650268
field sqrsum 0.012608799376957
field min 8.496e-007
field max 0.00042781823
statistic Basic.rack[4].node[9].app 	hops
field count 205527
field mean 4.6337269555825
field stddev 0.70836257940993
field sum 952356
field sqrsum 4516086
field min 4
field max 6
statistic Basic.rack[4].eps.queue[0] 	dropsum
field count 0
field mean nan
field stddev nan
field sum 0
field sqrsum 0
field min nan
field max nan
statistic Basic.rack[4].eps.queue[1] 	dropsum
field count 9558
field mean 4779.5
field stddev 2759.3012702494
field sum 45682461
field sqrsum 291103868979
field min 1
field max 9558
statistic Basic.rack[4].eps.queue[2] 	dropsum
field count 0
field mean nan
field stddev nan
field sum 0
field sqrsum 0
field min nan
field max nan
statistic Basic.rack[4].eps.queue[3] 	dropsum
field count 0
field mean nan
field stddev nan
field sum 0
field sqrsum 0
field min nan
field max nan
statistic Basic.rack[5].node[0].app 	throughput
field count 205164
field mean 102582.5
field stddev 59225.889651402
field sum 21046236030
field sqrsum 2.8786269946513e+015
field min 1
field max 205164
statistic Basic.rack[5].node[0].app 	"End-to-End Delay"
field count 205164
field mean 0.00030161610898538
field stddev 0.00021264965261752
field sum 61.880767383876
field sqrsum 0.027941681444402
field min 9.4416e-006
field max 0.000845776255
statistic Basic.rack[5].node[0].app 	hops
field count 205164
field mean 5.6359936441091
field stddev 0.70939552725187
field sum 1156303
field sqrsum 6620163
field min 5
field max 7
statistic Basic.rack[5].node[1].app 	throughput
field count 204544
field mean 102272.5
field stddev 59046.911067952
field sum 20919226240
field sqrsum 2.8526084477651e+015
field min 1
field max 204544
statistic Basic.rack[5].node[1].app 	"End-to-End Delay"
field count 204544
field mean 0.00030105441079403
field stddev 0.00021245276774046
field sum 61.578873401453
field sqrsum 0.02777088081237
field min 9.4416e-006
field max 0.000845691061
statistic Basic.rack[5].node[1].app 	hops
field count 204544
field mean 5.6342547324781
field stddev 0.70790051687458
field sum 1152453
field sqrsum 6595715
field min 5
field max 7
statistic Basic.rack[5].node[2].app 	throughput
field count 205268
field mean 102634.5
field stddev 59255.9118654
field sum 21067578546
field sqrsum 2.8830068311797e+015
field min 1
field max 205268
statistic Basic.rack[5].node[2].app 	"End-to-End Delay"
field count 205268
field mean 0.00030197775684575
field stddev 0.00021254078097863
field sum 61.986370192214
field sqrsum 0.027991151006168
field min 9.4416e-006
field max 0.000845565709
statistic Basic.rack[5].node[2].app 	hops
field count 205268
field mean 5.6345216984625
field stddev 0.70909836006655
field sum 1156587
field sqrsum 6620027
field min 5
field max 7
statistic Basic.rack[5].node[3].app 	throughput
field count 205519
field mean 102760
field stddev 59328.369324183
field sum 21119132440
field sqrsum 2.8935956930017e+015
field min 1
field max 205519
statistic Basic.rack[5].node[3].app 	"End-to-End Delay"
field count 205519
field mean 0.00030233631104979
field stddev 0.00021274546301128
field sum 62.135856310641
field sqrsum 0.028087800154808
field min 9.4416e-006
field max 0.000845750354
statistic Basic.rack[5].node[3].app 	hops
field count 205519
field mean 5.6342868542568
field stddev 0.7092938076477
field sum 1157953
field sqrsum 6627635
field min 5
field max 7
statistic Basic.rack[5].node[4].app 	throughput
field count 205426
field mean 102713.5
field stddev 59301.522536666
field sum 21100023451
field sqrsum 2.8896693116379e+015
field min 1
field max 205426
statistic Basic.rack[5].node[4].app 	"End-to-End Delay"
field count 205426
field mean 0.00030188516205128
field stddev 0.00021269049757693
field sum 62.015061299546
field sqrsum 0.028014288451033
field min 9.4416e-006
field max 0.00084556119
statistic Basic.rack[5].node[4].app 	hops
field count 205426
field mean 5.6350802722148
field stddev 0.70897567044591
field sum 1157592
field sqrsum 6626380
field min 5
field max 7
statistic Basic.rack[5].node[5].app 	throughput
field count 204401
field mean 102201
field stddev 59005.630523705
field sum 20889986601
field sqrsum 2.8466297308162e+015
field min 1
field max 204401
statistic Basic.rack[5].node[5].app 	"End-to-End Delay"
field count 204401
field mean 0.0003016560801992
field stddev 0.00021242213206389
field sum 61.658804448798
field sqrsum 0.027822927611545
field min 9.4416e-006
field max 0.000845825212
statistic Basic.rack[5].node[5].app 	hops
field count 204401
field mean 5.6348843694502
field stddev 0.70809348398015
field sum 1151776
field sqrsum 6592610
field min 5
field max 7
statistic Basic.rack[5].node[6].app 	throughput
field count 203842
field mean 101921.5
field stddev 58844.261123466
field sum 20775882403
field sqrsum 2.8233385391557e+015
field min 1
field max 203842
statistic Basic.rack[5].node[6].app 	"End-to-End Delay"
field count 203842
field mean 0.00030144746693514
field stddev 0.00021225280810685
field sum 61.447654554993
field sqrsum 0.02770653259328
field min 9.4416e-006
field max 0.000845655123
statistic Basic.rack[5].node[6].app 	hops
field count 203842
field mean 5.6327008172997
field stddev 0.70833524577997
field sum 1148181
field sqrsum 6569635
field min 5
field max 7
statistic Basic.rack[5].node[7].app 	throughput
field count 205231
field mean 102616
field stddev 59245.23088542
field sum 21059984296
field sqrsum 2.881448111363e+015
field min 1
field max 205231
statistic Basic.rack[5].node[7].app 	"End-to-End Delay"
field count 205231
field mean 0.00030116347245386
field stddev 0.00021299910343595
field sum 61.808080615177
field sqrsum 0.027925337669156
field min 9.4416e-006
field max 0.0008457612
statistic Basic.rack[5].node[7].app 	hops
field count 205231
field mean 5.6348261227592
field stddev 0.70941848606108
field sum 1156441
field sqrsum 6619631
field min 5
field max 7
statistic Basic.rack[5].node[8].app 	throughput
field count 204561
field mean 102281
field stddev 59051.81854524
field sum 20922703641
field sqrsum 2.8533197605723e+015
field min 1
field max 204561
statistic Basic.rack[5].node[8].app 	"End-to-End Delay"
field count 204561
field mean 0.00030156555675838
field stddev 0.00021237708704672
field sum 61.688551856051
field sqrsum 0.027829622270165
field min 9.4416e-006
field max 0.00084543921
statistic Basic.rack[5].node[8].app 	hops
field count 204561
field mean 5.6365387341673
field stddev 0.7092696442555
field sum 1153016
field sqrsum 6601926
field min 5
field max 7
statistic Basic.rack[5].node[9].app 	throughput
field count 205050
field mean 102525.5
field stddev 59192.980686058
field sum 21022853775
field sqrsum 2.8738311186604e+015
field min 1
field max 205050
statistic Basic.rack[5].node[9].app 	"End-to-End Delay"
field count 205050
field mean 0.00030207847462688
field stddev 0.00021201432582984
field sum 61.941191222242
field sqrsum 0.027928068357832
field min 9.4416e-006
field max 0.000845817093
statistic Basic.rack[5].node[9].app 	hops
field count 205050
field mean 5.6390197512802
field stddev 0.7093897910592
field sum 1156281
field sqrsum 6623479
field min 5
field max 7
statistic Basic.rack[5].eps.queue[0] 	dropsum
field count 0
field mean nan
field stddev nan
field sum 0
field sqrsum 0
field min nan
field max nan
statistic Basic.rack[5].eps.queue[1] 	dropsum
field count 835310
field mean 417655.5
field stddev 241133.37101514
field sum 348871815705
field sqrsum 1.9427752720799e+017
field min 1
field max 835310
statistic Basic.rack[5].eps.queue[2] 	dropsum
field count 0
field mean nan
field stddev nan
field sum 0
field sqrsum 0
field min nan
field max nan
statistic Basic.rack[5].eps.queue[3] 	dropsum
field count 0
field mean nan
field stddev nan
field sum 0
field sqrsum 0
field min nan
field max nan
statistic Basic.rack[6].node[0].app 	throughput
field count 128122
field mean 64061.5
field stddev 36985.779931842
field sum 8207687503
field sqrsum 7.0105962806874e+014
field min 1
field max 128122
statistic Basic.rack[6].node[0].app 	"End-to-End Delay"
field count 128122
field mean 0.00047029578558327
field stddev 9.3994295309993e-005
field sum 60.2552366405
field sqrsum 0.029469723604089
field min 0.0001394489
field max 0.000962627535
statistic Basic.rack[6].node[0].app 	hops
field count 128122
field mean 6.2846271522455
field stddev 0.79511695342443
field sum 805199
field sqrsum 5141375
field min 5
field max 7
statistic Basic.rack[6].node[1].app 	throughput
field count 127712
field mean 63856.5
field stddev 36867.423126657
field sum 8155241328
field sqrsum 6.943508387348e+014
field min 1
field max 127712
statistic Basic.rack[6].node[1].app 	"End-to-End Delay"
field count 127712
field mean 0.00047021182555897
field stddev 9.4175838239048e-005
field sum 60.051692665787
field sqrsum 0.029369696198735
field min 7.647021e-005
field max 0.000956948248
statistic Basic.rack[6].node[1].app 	hops
field count 127712
field mean 6.2838104485091
field stddev 0.79558316748782
field sum 802518
field sqrsum 5123706
field min 5
field max 7
statistic Basic.rack[6].node[2].app 	throughput
field count 127623
field mean 63812
field stddev 36841.731039678
field sum 8143878876
field sqrsum 6.9290021715412e+014
field min 1
field max 127623
statistic Basic.rack[6].node[2].app 	"End-to-End Delay"
field count 127623
field mean 0.00047027392971855
field stddev 9.4587824901616e-005
field sum 60.01776973247
field sqrsum 0.029366608160541
field min 0.000240938332
field max 0.00095087022
statistic Basic.rack[6].node[2].app 	hops
field count 127623
field mean 6.2773637980615
field stddev 0.79943071588323
field sum 801136
field sqrsum 5110584
field min 5
field max 7
statistic Basic.rack[6].node[3].app 	throughput
field count 127779
field mean 63890
field stddev 36886.764360675
field sum 8163800310
field sqrsum 6.9544421447443e+014
field min 1
field max 127779
statistic Basic.rack[6].node[3].app 	"End-to-End Delay"
field count 127779
field mean 0.00047015295068359
field stddev 9.393401460233e-005
field sum 60.075673885398
field sqrsum 0.029372217187236
field min 1.3415806e-005
field max 0.001014619177
statistic Basic.rack[6].node[3].app 	hops
field count 127779
field mean 6.2790677654388
field stddev 0.79802050169618
field sum 802333
field sqrsum 5119277
field min 5
field max 7
statistic Basic.rack[6].node[4].app 	throughput
field count 127298
field mean 63649.5
field stddev 36747.911620934
field sum 8102454051
field sqrsum 6.8762016467415e+014
field min 1
field max 127298
statistic Basic.rack[6].node[4].app 	"End-to-End Delay"
field count 127298
field mean 0.00046979172212574
field stddev 9.3738174412239e-005
field sum 59.803546643162
field sqrsum 0.029213750218237
field min 0.000237427278
field max 0.000932643142
statistic Basic.rack[6].node[4].app 	hops
field count 127298
field mean 6.2787632170183
field stddev 0.79824886942518
field sum 799274
field sqrsum 5099566
field min 5
field max 7
statistic Basic.rack[6].node[5].app 	throughput
field count 127504
field mean 63752.5
field stddev 36807.378698661
field sum 8128698760
field sqrsum 6.9096378069628e+014
field min 1
field max 127504
statistic Basic.rack[6].node[5].app 	"End-to-End Delay"
field count 127504
field mean 0.00046956770589749
field stddev 9.3385810373495e-005
field sum 59.871760772753
field sqrsum 0.02922578748817
field min 1.9731221e-005
field max 0.001001778885
statistic Basic.rack[6].node[5].app 	hops
field count 127504
field mean 6.27841479483
field stddev 0.79990015885581
field sum 800523
field sqrsum 5107597
field min 5
field max 7
statistic Basic.rack[6].node[6].app 	throughput
field count 127678
field mean 63839.5
field stddev 36857.608172081
field sum 8150899681
field sqrsum 6.9379642994704e+014
field min 1
field max 127678
statistic Basic.rack[6].node[6].app 	"End-to-End Delay"
field count 127678
field mean 0.00047024866963724
field stddev 9.4538995668425e-005
field sum 60.040409641943
field sqrsum 0.029375051484644
field min 1.7633966e-005
field max 0.001022242642
statistic Basic.rack[6].node[6].app 	hops
field count 127678
field mean 6.2798132802832
field stddev 0.79823633861769
field sum 801794
field sqrsum 5116470
field min 5
field max 7
statistic Basic.rack[6].node[7].app 	throughput
field count 128332
field mean 64166.5
field stddev 37046.401710108
field sum 8234615278
field sqrsum 7.0451251010929e+014
field min 1
field max 128332
statistic Basic.rack[6].node[7].app 	"End-to-End Delay"
field count 128332
field mean 0.00047051124420988
field stddev 9.4549450438413e-005
field sum 60.381648991942
field sqrsum 0.029557472419783
field min 0.000188228444
field max 0.00096636657
statistic Basic.rack[6].node[7].app 	hops
field count 128332
field mean 6.2794392669015
field stddev 0.79813832821602
field sum 805853
field sqrsum 5142055
field min 5
field max 7
statistic Basic.rack[6].node[8].app 	throughput
field count 127319
field mean 63660
field stddev 36753.973798761
field sum 8105127540
field sqrsum 6.8796052388602e+014
field min 1
field max 127319
statistic Basic.rack[6].node[8].app 	"End-to-End Delay"
field count 127319
field mean 0.00046974506894555
field stddev 9.3833645862169e-005
field sum 59.807472433078
field sqrsum 0.029215268816185
field min 0.000116914734
field max 0.000968033772
statistic Basic.rack[6].node[8].app 	hops
field count 127319
field mean 6.2764394944981
field stddev 0.79861897338929
field sum 799110
field sqrsum 5096768
field min 5
field max 7
statistic Basic.rack[6].node[9].app 	throughput
field count 128115
field mean 64058
field stddev 36983.7592059
field sum 8206790670
field sqrsum 7.0094472672159e+014
field min 1
field max 128115
statistic Basic.rack[6].node[9].app 	"End-to-End Delay"
field count 128115
field mean 0.00046998615281492
field stddev 9.4114402381211e-005
field sum 60.212275967884
field sqrsum 0.029433708345893
field min 0.000268234833
field max 0.000939404801
statistic Basic.rack[6].node[9].app 	hops
field count 128115
field mean 6.2785466182726
field stddev 0.7994086349718
field sum 804376
field sqrsum 5132184
field min 5
field max 7
statistic Basic.rack[6].eps.queue[0] 	dropsum
field count 0
field mean nan
field stddev nan
field sum 0
field sqrsum 0
field min nan
field max nan
statistic Basic.rack[6].eps.queue[1] 	dropsum
field count 4501490
field mean 2250745.5
field stddev 1299468.375969
field sum 10131708360795
field sqrsum 3.0405192623309e+019
field min 1
field max 4501490
statistic Basic.rack[6].eps.queue[2] 	dropsum
field count 0
field mean nan
field stddev nan
field sum 0
field sqrsum 0
field min nan
field max nan
statistic Basic.rack[6].eps.queue[3] 	dropsum
field count 0
field mean nan
field stddev nan
field sum 0
field sqrsum 0
field min nan
field max nan
statistic Basic.rack[7].node[0].app 	throughput
field count 122556
field mean 61278.5
field stddev 35379.014132675
field sum 7510047846
field sqrsum 6.1360345255887e+014
field min 1
field max 122556
statistic Basic.rack[7].node[0].app 	"End-to-End Delay"
field count 122556
field mean 0.00058620979503714
field stddev 0.00023235716672041
field sum 71.843527640572
field sqrsum 0.048732106038313
field min 6.0951889e-005
field max 0.001246892273
statistic Basic.rack[7].node[0].app 	hops
field count 122556
field mean 4.1899213420804
field stddev 0.88682941409709
field sum 513500
field sqrsum 2247910
field min 3
field max 5
statistic Basic.rack[7].node[1].app 	throughput
field count 122982
field mean 61491.5
field stddev 35501.989740013
field sum 7562347653
field sqrsum 6.2002428015672e+014
field min 1
field max 122982
statistic Basic.rack[7].node[1].app 	"End-to-End Delay"
field count 122982
field mean 0.00058544241026681
field stddev 0.00023226736592963
field sum 71.998878499432
field sqrsum 0.048785791851693
field min 0.000177498532
field max 0.001246966833
statistic Basic.rack[7].node[1].app 	hops
field count 122982
field mean 4.186994844774
field stddev 0.88868078382733
field sum 514925
field sqrsum 2253113
field min 3
field max 5
statistic Basic.rack[7].node[2].app 	throughput
field count 122916
field mean 61458.5
field stddev 35482.93718113
field sum 7554232986
field sqrsum 6.1902658588245e+014
field min 1
field max 122916
statistic Basic.rack[7].node[2].app 	"End-to-End Delay"
field count 122916
field mean 0.00058575426254911
field stddev 0.0002321564637135
field sum 71.998570935486
field sqrsum 0.048798173318103
field min 4.0654241e-005
field max 0.001247277615
statistic Basic.rack[7].node[2].app 	hops
field count 122916
field mean 4.1878274594032
field stddev 0.88736184030666
field sum 514751
field sqrsum 2252473
field min 3
field max 5
statistic Basic.rack[7].node[3].app 	throughput
field count 122458
field mean 61229.5
field stddev 35350.723969484
field sum 7498042111
field sqrsum 6.1213265989993e+014
field min 1
field max 122458
statistic Basic.rack[7].node[3].app 	"End-to-End Delay"
field count 122458
field mean 0.00058573139027594
field stddev 0.00023193977987851
field sum 71.727494590411
field sqrsum 0.048600749429344
field min 1.6125508e-005
field max 0.001246366026
statistic Basic.rack[7].node[3].app 	hops
field count 122458
field mean 4.1902938150223
field stddev 0.88719889157788
field sum 513135
field sqrsum 2246575
field min 3
field max 5
statistic Basic.rack[7].node[4].app 	throughput
field count 122265
field mean 61133
field stddev 35295.009668507
field sum 7474426245
field sqrsum 6.0924297470536e+014
field min 1
field max 122265
statistic Basic.rack[7].node[4].app 	"End-to-End Delay"
field count 122265
field mean 0.00058564013003628
field stddev 0.00023170729000635
field sum 71.603290498886
field sqrsum 0.048497902787144
field min 0.000136648737
field max 0.001247694769
statistic Basic.rack[7].node[4].app 	hops
field count 122265
field mean 4.1862184599027
field stddev 0.88733490365531
field sum 511828
field sqrsum 2238890
field min 3
field max 5
statistic Basic.rack[7].node[5].app 	throughput
field count 122702
field mean 61351.5
field stddev 35421.160702326
field sum 7527951753
field sqrsum 6.1579899998166e+014
field min 1
field max 122702
statistic Basic.rack[7].node[5].app 	"End-to-End Delay"
field count 122702
field mean 0.00058479677830546
field stddev 0.00023172992758986
field sum 71.755734291636
field sqrsum 0.048551413708567
field min 0.00015151794
field max 0.001247381612
statistic Basic.rack[7].node[5].app 	hops
field count 122702
field mean 4.1847565646852
field stddev 0.88862584970019
field sum 513478
field sqrsum 2245672
field min 3
field max 5
statistic Basic.rack[7].node[6].app 	throughput
field count 122668
field mean 61334.5
field stddev 35411.34574775
field sum 7523780446
field sqrsum 6.1528724109343e+014
field min 1
field max 122668
statistic Basic.rack[7].node[6].app 	"End-to-End Delay"
field count 122668
field mean 0.0005854528649878
field stddev 0.00023196063321979
field sum 71.816332042324
field sqrsum 0.048645265486955
field min 0.000113670071
field max 0.001244070093
statistic Basic.rack[7].node[6].app 	hops
field count 122668
field mean 4.1929680112173
field stddev 0.88666291884401
field sum 514343
field sqrsum 2253061
field min 3
field max 5
statistic Basic.rack[7].node[7].app 	throughput
field count 122265
field mean 61133
field stddev 35295.009668507
field sum 7474426245
field sqrsum 6.0924297470536e+014
field min 1
field max 122265
statistic Basic.rack[7].node[7].app 	"End-to-End Delay"
field count 122265
field mean 0.00058591323321814
field stddev 0.00023238962594828
field sum 71.636681459416
field sqrsum 0.048575739420905
field min 5.6476615e-005
field max 0.001246349752
statistic Basic.rack[7].node[7].app 	hops
field count 122265
field mean 4.1869872817241
field stddev 0.88851819043481
field sum 511922
field sqrsum 2239934
field min 3
field max 5
statistic Basic.rack[7].node[8].app 	throughput
field count 122278
field mean 61139.5
field stddev 35298.762445257
field sum 7476015781
field sqrsum 6.0943733045134e+014
field min 1
field max 122278
statistic Basic.rack[7].node[8].app 	"End-to-End Delay"
field count 122278
field mean 0.00058631456907227
field stddev 0.00023235793761958
field sum 71.693372877019
field sqrsum 0.048636630075551
field min 0.000385016204
field max 0.001247479751
statistic Basic.rack[7].node[8].app 	hops
field count 122278
field mean 4.1919560346097
field stddev 0.88675404479788
field sum 512584
field sqrsum 2244880
field min 3
field max 5
statistic Basic.rack[7].node[9].app 	throughput
field count 122920
field mean 61460.5
field stddev 35484.091881668
field sum 7554724660
field sqrsum 6.1908702171302e+014
field min 1
field max 122920
statistic Basic.rack[7].node[9].app 	"End-to-End Delay"
field count 122920
field mean 0.00058555118953787
field stddev 0.00023250032317775
field sum 71.975952217995
field sqrsum 0.048790163105109
field min 6.2277813e-005
field max 0.001247023796
statistic Basic.rack[7].node[9].app 	hops
field count 122920
field mean 4.1907419459811
field stddev 0.88849835916141
field sum 515126
field sqrsum 2255796
field min 3
field max 5
statistic Basic.rack[7].eps.queue[0] 	dropsum
field count 0
field mean nan
field stddev nan
field sum 0
field sqrsum 0
field min nan
field max nan
statistic Basic.rack[7].eps.queue[1] 	dropsum
field count 0
field mean nan
field stddev nan
field sum 0
field sqrsum 0
field min nan
field max nan
statistic Basic.rack[7].eps.queue[2] 	dropsum
field count 0
field mean nan
field stddev nan
field sum 0
field sqrsum 0
field min nan
field max nan
statistic Basic.rack[7].eps.queue[3] 	dropsum
field count 0
field mean nan
field stddev nan
field sum 0
field sqrsum 0
field min nan
field max nan
statistic Basic.rack[8].node[0].app 	throughput
field count 122153
field mean 61077
field stddev 35262.678053432
field sum 7460738781
field sqrsum 6.0757023645659e+014
field min 1
field max 122153
statistic Basic.rack[8].node[0].app 	"End-to-End Delay"
field count 122153
field mean 0.00059379792728401
field stddev 0.00023214445978319
field sum 72.534198211523
field sqrsum 0.049653556120221
field min 2.9529054e-005
field max 0.001255376939
statistic Basic.rack[8].node[0].app 	hops
field count 122153
field mean 5.1898520707637
field stddev 0.88803647877369
field sum 633956
field sqrsum 3386468
field min 4
field max 6
statistic Basic.rack[8].node[1].app 	throughput
field count 123061
field mean 61531
field stddev 35524.795075646
field sum 7572066391
field sqrsum 6.2121989878403e+014
field min 1
field max 123061
statistic Basic.rack[8].node[1].app 	"End-to-End Delay"
field count 123061
field mean 0.00059441637703478
field stddev 0.00023246494143474
field sum 73.149473774277
field sqrsum 0.050131401306386
field min 0.00042043494
field max 0.001256090956
statistic Basic.rack[8].node[1].app 	hops
field count 123061
field mean 5.1898651888088
field stddev 0.88785620377322
field sum 638670
field sqrsum 3411618
field min 4
field max 6
statistic Basic.rack[8].node[2].app 	throughput
field count 122856
field mean 61428.5
field stddev 35465.616673054
field sum 7546859796
field sqrsum 6.1812052035152e+014
field min 1
field max 122856
statistic Basic.rack[8].node[2].app 	"End-to-End Delay"
field count 122856
field mean 0.00059374619028722
field stddev 0.00023182047686751
field sum 72.945281953927
field sqrsum 0.04991330107311
field min 2.5630298e-005
field max 0.001255069003
statistic Basic.rack[8].node[2].app 	hops
field count 122856
field mean 5.1848749755812
field stddev 0.88743775146506
field sum 636993
field sqrsum 3399483
field min 4
field max 6
statistic Basic.rack[8].node[3].app 	throughput
field count 122680
field mean 61340.5
field stddev 35414.809849365
field sum 7525252540
field sqrsum 6.1546782948898e+014
field min 1
field max 122680
statistic Basic.rack[8].node[3].app 	"End-to-End Delay"
field count 122680
field mean 0.00059376721968084
field stddev 0.00023222153245113
field sum 72.843362510446
field sqrsum 0.049867691650824
field min 3.7125772e-005
field max 0.001255181436
statistic Basic.rack[8].node[3].app 	hops
field count 122680
field mean 5.1884333224649
field stddev 0.88802385482268
field sum 636517
field sqrsum 3399269
field min 4
field max 6
statistic Basic.rack[8].node[4].app 	throughput
field count 122535
field mean 61268
field stddev 35372.951954848
field sum 7507474380
field sqrsum 6.1328808459366e+014
field min 1
field max 122535
statistic Basic.rack[8].node[4].app 	"End-to-End Delay"
field count 122535
field mean 0.00059488210758086
field stddev 0.00023247610576688
field sum 72.893879052421
field sqrsum 0.049985631554886
field min 0.000420434425
field max 0.001255458771
statistic Basic.rack[8].node[4].app 	hops
field count 122535
field mean 5.188068715061
field stddev 0.88775874885728
field sum 635720
field sqrsum 3394730
field min 4
field max 6
statistic Basic.rack[8].node[5].app 	throughput
field count 122163
field mean 61082
field stddev 35265.564804778
field sum 7461960366
field sqrsum 6.0771946344789e+014
field min 1
field max 122163
statistic Basic.rack[8].node[5].app 	"End-to-End Delay"
field count 122163
field mean 0.00059512814135578
field stddev 0.00023223289797869
field sum 72.702639132446
field sqrsum 0.049855842008052
field min 8.0612285e-005
field max 0.001255397987
statistic Basic.rack[8].node[5].app 	hops
field count 122163
field mean 5.1874953954962
field stddev 0.88650678939067
field sum 633720
field sqrsum 3383426
field min 4
field max 6
statistic Basic.rack[8].node[6].app 	throughput
field count 121964
field mean 60982.5
field stddev 35208.118452993
field sum 7437669630
field sqrsum 6.0475443839209e+014
field min 1
field max 121964
statistic Basic.rack[8].node[6].app 	"End-to-End Delay"
field count 121964
field mean 0.00059528765313262
field stddev 0.00023212648646182
field sum 72.603663326666
field sqrsum 0.049791760787938
field min 0.000148095839
field max 0.00125455772
statistic Basic.rack[8].node[6].app 	hops
field count 121964
field mean 5.1903266537667
field stddev 0.88555791092866
field sum 633033
field sqrsum 3381293
field min 4
field max 6
statistic Basic.rack[8].node[7].app 	throughput
field count 122743
field mean 61372
field stddev 35432.996382844
field sum 7532983396
field sqrsum 6.1641649831128e+014
field min 1
field max 122743
statistic Basic.rack[8].node[7].app 	"End-to-End Delay"
field count 122743
field mean 0.00059434789062467
field stddev 0.00023202277050717
field sum 72.952043138944
field sqrsum 0.049966655260515
field min 7.0415776e-005
field max 0.001255708716
statistic Basic.rack[8].node[7].app 	hops
field count 122743
field mean 5.1887439609591
field stddev 0.88824264338913
field sum 636882
field sqrsum 3401458
field min 4
field max 6
statistic Basic.rack[8].node[8].app 	throughput
field count 122397
field mean 61199
field stddev 35333.114786274
field sum 7490574003
field sqrsum 6.112183543548e+014
field min 1
field max 122397
statistic Basic.rack[8].node[8].app 	"End-to-End Delay"
field count 122397
field mean 0.00059331466701296
field stddev 0.00023166524736105
field sum 72.619935298385
field sqrsum 0.049655317563503
field min 8.2626403e-005
field max 0.001255472466
statistic Basic.rack[8].node[8].app 	hops
field count 122397
field mean 5.189628830772
field stddev 0.8877979458386
field sum 635195
field sqrsum 3392897
field min 4
field max 6
statistic Basic.rack[8].node[9].app 	throughput
field count 122967
field mean 61484
field stddev 35497.659612994
field sum 7560503028
field sqrsum 6.1979743739706e+014
field min 1
field max 122967
statistic Basic.rack[8].node[9].app 	"End-to-End Delay"
field count 122967
field mean 0.00059350325511042
field stddev 0.00023188168547451
field sum 72.981314771163
field sqrsum 0.049926421004172
field min 0.000101346128
field max 0.001255166351
statistic Basic.rack[8].node[9].app 	hops
field count 122967
field mean 5.1843340083112
field stddev 0.88905529147652
field sum 637502
field sqrsum 3402218
field min 4
field max 6
statistic Basic.rack[8].eps.queue[0] 	dropsum
field count 0
field mean nan
field stddev nan
field sum 0
field sqrsum 0
field min nan
field max nan
statistic Basic.rack[8].eps.queue[1] 	dropsum
field count 12747
field mean 6374
field stddev 3679.8862754167
field sum 81249378
field sqrsum 690484297370
field min 1
field max 12747
statistic Basic.rack[8].eps.queue[2] 	dropsum
field count 0
field mean nan
field stddev nan
field sum 0
field sqrsum 0
field min nan
field max nan
statistic Basic.rack[8].eps.queue[3] 	dropsum
field count 0
field mean nan
field stddev nan
field sum 0
field sqrsum 0
field min nan
field max nan
statistic Basic.rack[9].node[0].app 	throughput
field count 210304
field mean 105152.5
field stddev 60709.679843223
field sum 22113991360
field sqrsum 3.1004479306461e+015
field min 1
field max 210304
statistic Basic.rack[9].node[0].app 	"End-to-End Delay"
field count 210304
field mean 0.00021965638726244
field stddev 0.00034045527335078
field sum 46.194616866841
field sqrsum 0.034523119881263
field min 9.4416e-006
field max 0.001256728246
statistic Basic.rack[9].node[0].app 	hops
field count 210304
field mean 5.4628252434571
field stddev 0.49861730782802
field sum 1148854
field sqrsum 6328274
field min 5
field max 6
statistic Basic.rack[9].node[1].app 	throughput
field count 210649
field mean 105325
field stddev 60809.272764659
field sum 22186605925
field sqrsum 3.1157316298655e+015
field min 1
field max 210649
statistic Basic.rack[9].node[1].app 	"End-to-End Delay"
field count 210649
field mean 0.0002186257452529
field stddev 0.00033933565914457
field sum 46.053294611778
field sqrsum 0.034324277015777
field min 9.4416e-006
field max 0.001256146497
statistic Basic.rack[9].node[1].app 	hops
field count 210649
field mean 5.4577709839591
field stddev 0.49821470126092
field sum 1149674
field sqrsum 6326944
field min 5
field max 6
statistic Basic.rack[9].node[2].app 	throughput
field count 210364
field mean 105182.5
field stddev 60727.000351299
field sum 22126611430
field sqrsum 3.1031023667775e+015
field min 1
field max 210364
statistic Basic.rack[9].node[2].app 	"End-to-End Delay"
field count 210364
field mean 0.00021920013544371
field stddev 0.00034003053480806
field sum 46.111817292482
field sqrsum 0.034430047500007
field min 9.4416e-006
field max 0.001256431551
statistic Basic.rack[9].node[2].app 	hops
field count 210364
field mean 5.4615333422068
field stddev 0.498519305169
field sum 1148910
field sqrsum 6327090
field min 5
field max 6
statistic Basic.rack[9].node[3].app 	throughput
field count 209876
field mean 104938.5
field stddev 60586.126885616
field sum 22024072626
field sqrsum 3.0815568523271e+015
field min 1
field max 209876
statistic Basic.rack[9].node[3].app 	"End-to-End Delay"
field count 209876
field mean 0.00022076266119847
field stddev 0.00034146300268073
field sum 46.33278428169
field sqrsum 0.034699340397931
field min 9.4416e-006
field max 0.001256536899
statistic Basic.rack[9].node[3].app 	hops
field count 209876
field mean 5.4605671920563
field stddev 0.49844381572448
field sum 1146042
field sqrsum 6310182
field min 5
field max 6
statistic Basic.rack[9].node[4].app 	throughput
field count 210592
field mean 105296.5
field stddev 60792.818281987
field sum 22174600528
field sqrsum 3.1132030411286e+015
field min 1
field max 210592
statistic Basic.rack[9].node[4].app 	"End-to-End Delay"
field count 210592
field mean 0.00022023454759894
field stddev 0.00034051611119067
field sum 46.379633847956
field sqrsum 0.034632681466387
field min 9.4416e-006
field max 0.001256632439
statistic Basic.rack[9].node[4].app 	hops
field count 210592
field mean 5.4593004482601
field stddev 0.49834197671648
field sum 1149685
field sqrsum 6328775
field min 5
field max 6
statistic Basic.rack[9].node[5].app 	throughput
field count 210036
field mean 105018.5
field stddev 60632.314907152
field sum 22057665666
field sqrsum 3.0886099297712e+015
field min 1
field max 210036
statistic Basic.rack[9].node[5].app 	"End-to-End Delay"
field count 210036
field mean 0.00022154116672772
field stddev 0.00034130138746337
field sum 46.531620494823
field sqrsum 0.03477494031418
field min 9.4416e-006
field max 0.00125664359
statistic Basic.rack[9].node[5].app 	hops
field count 210036
field mean 5.4587308842294
field stddev 0.49829513569017
field sum 1146530
field sqrsum 6310750
field min 5
field max 6
statistic Basic.rack[9].node[6].app 	throughput
field count 210005
field mean 105003
field stddev 60623.365977979
field sum 22051155015
field sqrsum 3.0872425563351e+015
field min 1
field max 210005
statistic Basic.rack[9].node[6].app 	"End-to-End Delay"
field count 210005
field mean 0.00021890771405939
field stddev 0.0003397244433624
field sum 45.971714491042
field sqrsum 0.034300691039172
field min 9.4416e-006
field max 0.001256181207
statistic Basic.rack[9].node[6].app 	hops
field count 210005
field mean 5.4590890693079
field stddev 0.49832467150799
field sum 1146436
field sqrsum 6310646
field min 5
field max 6
statistic Basic.rack[9].node[7].app 	throughput
field count 210818
field mean 105409.5
field stddev 60858.058862405
field sum 22222219971
field sqrsum 3.1232367206375e+015
field min 1
field max 210818
statistic Basic.rack[9].node[7].app 	"End-to-End Delay"
field count 210818
field mean 0.00021979414985669
field stddev 0.00034018270958157
field sum 46.336563084488
field sqrsum 0.034581150162479
field min 9.4416e-006
field max 0.001256812215
statistic Basic.rack[9].node[7].app 	hops
field count 210818
field mean 5.4602263563832
field stddev 0.49841672888477
field sum 1151114
field sqrsum 6337714
field min 5
field max 6
statistic Basic.rack[9].node[8].app 	throughput
field count 211006
field mean 105503.5
field stddev 60912.329787709
field sum 22261871521
field sqrsum 3.1315997287306e+015
field min 1
field max 211006
statistic Basic.rack[9].node[8].app 	"End-to-End Delay"
field count 211006
field mean 0.00021931763703532
field stddev 0.00034033255186147
field sum 46.277337320274
field sqrsum 0.034589353276328
field min 9.4416e-006
field max 0.001256640441
statistic Basic.rack[9].node[8].app 	hops
field count 211006
field mean 5.4597831341289
field stddev 0.49838116019805
field sum 1152047
field sqrsum 6342337
field min 5
field max 6
statistic Basic.rack[9].node[9].app 	throughput
field count 210302
field mean 105151.5
field stddev 60709.102492954
field sum 22113570753
field sqrsum 3.1003594755219e+015
field min 1
field max 210302
statistic Basic.rack[9].node[9].app 	"End-to-End Delay"
field count 210302
field mean 0.00021961166658712
field stddev 0.00034014348391213
field sum 46.184772706604
field sqrsum 0.034474033705584
field min 9.4416e-006
field max 0.001256743177
statistic Basic.rack[9].node[9].app 	hops
field count 210302
field mean 5.4595866896178
field stddev 0.49836527301775
field sum 1148162
field sqrsum 6320722
field min 5
field max 6
statistic Basic.rack[9].eps.queue[0] 	dropsum
field count 0
field mean nan
field stddev nan
field sum 0
field sqrsum 0
field min nan
field max nan
statistic Basic.rack[9].eps.queue[1] 	dropsum
field count 0
field mean nan
field stddev nan
field sum 0
field sqrsum 0
field min nan
field max nan
statistic Basic.rack[9].eps.queue[2] 	dropsum
field count 0
field mean nan
field stddev nan
field sum 0
field sqrsum 0
field min nan
field max nan
statistic Basic.rack[9].eps.queue[3] 	dropsum
field count 0
field mean nan
field stddev nan
field sum 0
field sqrsum 0
field min nan
field max nan
statistic Basic.rack[10].node[0].app 	throughput
field count 210411
field mean 105206
field stddev 60740.568082625
field sum 22136499666
field sqrsum 3.1051827329817e+015
field min 1
field max 210411
statistic Basic.rack[10].node[0].app 	"End-to-End Delay"
field count 210411
field mean 0.00016516372910214
field stddev 0.00026967786901951
field sum 34.752265404111
field sqrsum 0.021042123609807
field min 8.496e-007
field max 0.00083065795
statistic Basic.rack[10].node[0].app 	hops
field count 210411
field mean 4.7465531745013
field stddev 0.62777235582958
field sum 998727
field sqrsum 4823433
field min 4
field max 6
statistic Basic.rack[10].node[1].app 	throughput
field count 210699
field mean 105350
field stddev 60823.706521389
field sum 22197139650
field sqrsum 3.1179508171234e+015
field min 1
field max 210699
statistic Basic.rack[10].node[1].app 	"End-to-End Delay"
field count 210699
field mean 0.00016435763464241
field stddev 0.00026969428529741
field sum 34.629989261521
field sqrsum 0.021016823737603
field min 8.496e-007
field max 0.000830516792
statistic Basic.rack[10].node[1].app 	hops
field count 210699
field mean 4.7461259901566
field stddev 0.62833661784999
field sum 1000004
field sqrsum 4829330
field min 4
field max 6
statistic Basic.rack[10].node[2].app 	throughput
field count 209878
field mean 104939.5
field stddev 60586.704235886
field sum 22024492381
field sqrsum 3.0816449494571e+015
field min 1
field max 209878
statistic Basic.rack[10].node[2].app 	"End-to-End Delay"
field count 209878
field mean 0.00016585823934805
field stddev 0.00027038675828843
field sum 34.80999555789
field sqrsum 0.021117421970184
field min 8.496e-007
field max 0.000830482254
statistic Basic.rack[10].node[2].app 	hops
field count 209878
field mean 4.7470244618302
field stddev 0.6291839351194
field sum 996296
field sqrsum 4812526
field min 4
field max 6
statistic Basic.rack[10].node[3].app 	throughput
field count 210424
field mean 105212.5
field stddev 60744.320859375
field sum 22139235100
field sqrsum 3.1057583175333e+015
field min 1
field max 210424
statistic Basic.rack[10].node[3].app 	"End-to-End Delay"
field count 210424
field mean 0.0001647907945723
field stddev 0.00026921023338532
field sum 34.675938157082
field sqrsum 0.020964503416263
field min 8.496e-007
field max 0.000830635747
statistic Basic.rack[10].node[3].app 	hops
field count 210424
field mean 4.7461553815154
field stddev 0.6269109580766
field sum 998705
field sqrsum 4822709
field min 4
field max 6
statistic Basic.rack[10].node[4].app 	throughput
field count 210208
field mean 105104.5
field stddev 60681.967030302
field sum 22093806736
field sqrsum 3.0962039821763e+015
field min 1
field max 210208
statistic Basic.rack[10].node[4].app 	"End-to-End Delay"
field count 210208
field mean 0.00016519984598456
field stddev 0.0002699775844492
field sum 34.726329224722
field sqrsum 0.021058330216082
field min 8.496e-007
field max 0.000830613882
statistic Basic.rack[10].node[4].app 	hops
field count 210208
field mean 4.7467984091947
field stddev 0.62854543333721
field sum 997815
field sqrsum 4819473
field min 4
field max 6
statistic Basic.rack[10].node[5].app 	throughput
field count 210908
field mean 105454.5
field stddev 60884.039624519
field sum 22241197686
field sqrsum 3.1272384281052e+015
field min 1
field max 210908
statistic Basic.rack[10].node[5].app 	"End-to-End Delay"
field count 210908
field mean 0.00016485144592029
field stddev 0.00026985928713756
field sum 34.768488756157
field sqrsum 0.021090734362952
field min 8.496e-007
field max 0.000830530913
statistic Basic.rack[10].node[5].app 	hops
field count 210908
field mean 4.7450831642233
field stddev 0.62899696538297
field sum 1000776
field sqrsum 4832208
field min 4
field max 6
statistic Basic.rack[10].node[6].app 	throughput
field count 210905
field mean 105453
field stddev 60883.173599115
field sum 22240564965
field sqrsum 3.1271049828172e+015
field min 1
field max 210905
statistic Basic.rack[10].node[6].app 	"End-to-End Delay"
field count 210905
field mean 0.00016543413230865
field stddev 0.0002702624112277
field sum 34.890885674555
field sqrsum 0.021176945051713
field min 8.496e-007
field max 0.000830659244
statistic Basic.rack[10].node[6].app 	hops
field count 210905
field mean 4.7463597354259
field stddev 0.62931463220137
field sum 1001031
field sqrsum 4834779
field min 4
field max 6
statistic Basic.rack[10].node[7].app 	throughput
field count 210544
field mean 105272.5
field stddev 60778.961875526
field sum 22164493240
field sqrsum 3.1110747646461e+015
field min 1
field max 210544
statistic Basic.rack[10].node[7].app 	"End-to-End Delay"
field count 210544
field mean 0.00016601873178176
field stddev 0.00027056564388533
field sum 34.954247864258
field sqrsum 0.021216021839372
field min 8.496e-007
field max 0.000830601324
statistic Basic.rack[10].node[7].app 	hops
field count 210544
field mean 4.7475682042708
field stddev 0.62921257149498
field sum 999572
field sqrsum 4828892
field min 4
field max 6
statistic Basic.rack[10].node[8].app 	throughput
field count 210372
field mean 105186.5
field stddev 60729.309752376
field sum 22128294378
field sqrsum 3.1034564060239e+015
field min 1
field max 210372
statistic Basic.rack[10].node[8].app 	"End-to-End Delay"
field count 210372
field mean 0.00016609308407775
field stddev 0.00027065093999894
field sum 34.941334283604
field sqrsum 0.021213596017161
field min 8.496e-007
field max 0.000830616778
statistic Basic.rack[10].node[8].app 	hops
field count 210372
field mean 4.7484931454756
field stddev 0.62909589229701
field sum 998950
field sqrsum 4826764
field min 4
field max 6
statistic Basic.rack[10].node[9].app 	throughput
field count 211153
field mean 105577
field stddev 60954.765032495
field sum 22292900281
field sqrsum 3.1381492796561e+015
field min 1
field max 211153
statistic Basic.rack[10].node[9].app 	"End-to-End Delay"
field count 211153
field mean 0.00016531510960296
field stddev 0.00027011395010525
field sum 34.906781337993
field sqrsum 0.021176594752523
field min 8.496e-007
field max 0.000830573394
statistic Basic.rack[10].node[9].app 	hops
field count 211153
field mean 4.7466955240986
field stddev 0.62871144284189
field sum 1002279
field sqrsum 4840977
field min 4
field max 6
statistic Basic.rack[10].eps.queue[0] 	dropsum
field count 0
field mean nan
field stddev nan
field sum 0
field sqrsum 0
field min nan
field max nan
statistic Basic.rack[10].eps.queue[1] 	dropsum
field count 5328722
field mean 2664361.5
field stddev 1538269.6849106
field sum 14197641741003
field sqrsum 5.0436861994891e+019
field min 1
field max 5328722
statistic Basic.rack[10].eps.queue[2] 	dropsum
field count 0
field mean nan
field stddev nan
field sum 0
field sqrsum 0
field min nan
field max nan
statistic Basic.rack[10].eps.queue[3] 	dropsum
field count 0
field mean nan
field stddev nan
field sum 0
field sqrsum 0
field min nan
field max nan
statistic Basic.rack[11].node[0].app 	throughput
field count 127691
field mean 63846
field stddev 36861.360948831
field sum 8152559586
field sqrsum 6.9400837491715e+014
field min 1
field max 127691
statistic Basic.rack[11].node[0].app 	"End-to-End Delay"
field count 127691
field mean 0.00047102621108712
field stddev 9.6442796368309e-005
field sum 60.145807919926
field sqrsum 0.029517923901607
field min 9.7179518e-005
field max 0.000924709141
statistic Basic.rack[11].node[0].app 	hops
field count 127691
field mean 4.280552270716
field stddev 0.79809809680199
field sum 546588
field sqrsum 2421032
field min 3
field max 5
statistic Basic.rack[11].node[1].app 	throughput
field count 128157
field mean 64079
field stddev 36995.883561553
field sum 8212172403
field sqrsum 7.0163432315832e+014
field min 1
field max 128157
statistic Basic.rack[11].node[1].app 	"End-to-End Delay"
field count 128157
field mean 0.00047105709991746
field stddev 9.5978541412593e-005
field sum 60.369264754122
field sqrsum 0.029617928525267
field min 0.000188296858
field max 0.00094040555
[...]
statistic Basic.rack[13].node[2].app 	"End-to-End Delay"
field count 205460
field mean 0.00030310696775706
field stddev 0.00021329311532085
field sum 62.276357595365
field sqrsum 0.028223540012003
field min 9.4416e-006
field max 0.000845813745
statistic Basic.rack[13].node[2].app 	hops
field count 205460
field mean 5.6344057237418
field stddev 0.7100051551816
field sum 1157645
field sqrsum 6626215
field min 5
field max 7
statistic Basic.rack[13].node[3].app 	throughput
field count 205544
field mean 102772.5
field stddev 59335.586202548
field sum 21124270740
field sqrsum 2.8946517780786e+015
field min 1
field max 205544
statistic Basic.rack[13].node[3].app 	"End-to-End Delay"
field count 205544
field mean 0.00030424381113121
field stddev 0.00021323117737994
field sum 62.535489915154
field sqrsum 0.028371569330654
field min 9.4416e-006
field max 0.000845635625
statistic Basic.rack[13].node[3].app 	hops
field count 205544
field mean 5.6336453508738
field stddev 0.70796377099958
field sum 1157962
field sqrsum 6626568
field min 5
field max 7
statistic Basic.rack[13].node[4].app 	throughput
field count 204496
field mean 102248.5
field stddev 59033.054661492
field sum 20909409256
field sqrsum 2.8506006732797e+015
field min 1
field max 204496
statistic Basic.rack[13].node[4].app 	"End-to-End Delay"
field count 204496
field mean 0.00030362931449441
field stddev 0.00021301091385309
field sum 62.09098029685
field sqrsum 0.028131326222069
field min 9.4416e-006
field max 0.000845603197
statistic Basic.rack[13].node[4].app 	hops
field count 204496
field mean 5.6359928800563
field stddev 0.70924234904449
field sum 1152538
field sqrsum 6598562
field min 5
field max 7
statistic Basic.rack[13].node[5].app 	throughput
field count 204623
field mean 102312
field stddev 59069.716403585
field sum 20935388376
field sqrsum 2.8559149622376e+015
field min 1
field max 204623
statistic Basic.rack[13].node[5].app 	"End-to-End Delay"
field count 204623
field mean 0.0003035276234678
field stddev 0.00021310204486091
field sum 62.108732896851
field sqrsum 0.028144108887161
field min 9.4416e-006
field max 0.000845814768
statistic Basic.rack[13].node[5].app 	hops
field count 204623
field mean 5.6350801229578
field stddev 0.7092083975874
field sum 1153067
field sqrsum 6600545
field min 5
field max 7
statistic Basic.rack[13].node[6].app 	throughput
field count 204736
field mean 102368.5
field stddev 59102.336693795
field sum 20958517216
field sqrsum 2.8606489733291e+015
field min 1
field max 204736
statistic Basic.rack[13].node[6].app 	"End-to-End Delay"
field count 204736
field mean 0.00030290513553926
field stddev 0.00021302191084172
field sum 62.015585829767
field sqrsum 0.028075372744895
field min 9.4416e-006
field max 0.000845586244
statistic Basic.rack[13].node[6].app 	hops
field count 204736
field mean 5.6318038840263
field stddev 0.70847236708668
field sum 1153033
field sqrsum 6596419
field min 5
field max 7
statistic Basic.rack[13].node[7].app 	throughput
field count 204421
field mean 102211
field stddev 59011.404026397
field sum 20894074831
field sqrsum 2.8474654120435e+015
field min 1
field max 204421
statistic Basic.rack[13].node[7].app 	"End-to-End Delay"
field count 204421
field mean 0.00030361314816184
field stddev 0.00021290241714781
field sum 62.064903360391
field sqrsum 0.028109555826469
field min 9.4416e-006
field max 0.000845807492
statistic Basic.rack[13].node[7].app 	hops
field count 204421
field mean 5.6336433145323
field stddev 0.70926259355403
field sum 1151635
field sqrsum 6590735
field min 5
field max 7
statistic Basic.rack[13].node[8].app 	throughput
field count 205336
field mean 102668.5
field stddev 59275.541774552
field sum 21081539116
field sqrsum 2.8858729711284e+015
field min 1
field max 205336
statistic Basic.rack[13].node[8].app 	"End-to-End Delay"
field count 205336
field mean 0.00030348293771298
field stddev 0.00021318515556027
field sum 62.315972498232
field sqrsum 0.028243881113246
field min 9.4416e-006
field max 0.000845793461
statistic Basic.rack[13].node[8].app 	hops
field count 205336
field mean 5.6343700081817
field stddev 0.70924927859564
field sum 1156939
field sqrsum 6621913
field min 5
field max 7
statistic Basic.rack[13].node[9].app 	throughput
field count 204348
field mean 102174.5
field stddev 58990.330741572
field sum 20879154726
field sqrsum 2.8444159663507e+015
field min 1
field max 204348
statistic Basic.rack[13].node[9].app 	"End-to-End Delay"
field count 204348
field mean 0.00030391266644439
field stddev 0.00021316106951419
field sum 62.103945562578
field sqrsum 0.028159221431773
field min 9.4416e-006
field max 0.000845814514
statistic Basic.rack[13].node[9].app 	hops
field count 204348
field mean 5.6347064811009
field stddev 0.70863954754329
field sum 1151441
field sqrsum 6590649
field min 5
field max 7
statistic Basic.rack[13].eps.queue[0] 	dropsum
field count 0
field mean nan
field stddev nan
field sum 0
field sqrsum 0
field min nan
field max nan
statistic Basic.rack[13].eps.queue[1] 	dropsum
field count 831794
field mean 415897.5
field stddev 240118.38924191
field sum 345941045115
field sqrsum 1.9183457243363e+017
field min 1
field max 831794
statistic Basic.rack[13].eps.queue[2] 	dropsum
field count 0
field mean nan
field stddev nan
field sum 0
field sqrsum 0
field min nan
field max nan
statistic Basic.rack[13].eps.queue[3] 	dropsum
field count 0
field mean nan
field stddev nan
field sum 0
field sqrsum 0
field min nan
field max nan
statistic Basic.rack[14].node[0].app 	throughput
field count 127970
field mean 63985.5
field stddev 36941.901311384
field sum 8188224435
field sqrsum 6.9856745003944e+014
field min 1
field max 127970
statistic Basic.rack[14].node[0].app 	"End-to-End Delay"
field count 127970
field mean 0.00047168302696652
field stddev 9.6664071130252e-005
field sum 60.361276960906
field sqrsum 0.029667124825139
field min 5.3931485e-005
field max 0.000932204812
statistic Basic.rack[14].node[0].app 	hops
field count 127970
field mean 6.2812299757756
field stddev 0.79838496342253
field sum 803809
field sqrsum 5130479
field min 5
field max 7
statistic Basic.rack[14].node[1].app 	throughput
field count 127680
field mean 63840.5
field stddev 36858.18552235
field sum 8151155040
field sqrsum 6.9382903405648e+014
field min 1
field max 127680
statistic Basic.rack[14].node[1].app 	"End-to-End Delay"
field count 127680
field mean 0.0004719137067769
field stddev 9.6943358165471e-005
field sum 60.253942081275
field sqrsum 0.029634590273406
field min 8.6978675e-005
field max 0.000941618887
statistic Basic.rack[14].node[1].app 	hops
field count 127680
field mean 6.2793389724311
field stddev 0.79808144959163
field sum 801746
field sqrsum 5115758
field min 5
field max 7
statistic Basic.rack[14].node[2].app 	throughput
field count 127585
field mean 63793
field stddev 36830.761384564
field sum 8139029905
field sqrsum 6.9228146662958e+014
field min 1
field max 127585
statistic Basic.rack[14].node[2].app 	"End-to-End Delay"
field count 127585
field mean 0.00047175807369525
field stddev 9.6841397107965e-005
field sum 60.189253832408
field sqrsum 0.029591281883364
field min 8.3707513e-005
field max 0.00092869328
statistic Basic.rack[14].node[2].app 	hops
field count 127585
field mean 6.2775796527805
field stddev 0.79933720406421
field sum 800925
field sqrsum 5109389
field min 5
field max 7
statistic Basic.rack[14].node[3].app 	throughput
field count 127596
field mean 63798.5
field stddev 36833.936811044
field sum 8140433406
field sqrsum 6.9246054072579e+014
field min 1
field max 127596
statistic Basic.rack[14].node[3].app 	"End-to-End Delay"
field count 127596
field mean 0.0004715706864207
field stddev 9.6518576231011e-005
field sum 60.170533304535
field sqrsum 0.029563313730699
field min 0.000375986267
field max 0.000929068763
statistic Basic.rack[14].node[3].app 	hops
field count 127596
field mean 6.2800714755948
field stddev 0.79700921095039
field sum 801312
field sqrsum 5113348
field min 5
field max 7
statistic Basic.rack[14].node[4].app 	throughput
field count 127283
field mean 63642
field stddev 36743.581493915
field sum 8100544686
field sqrsum 6.8737711969365e+014
field min 1
field max 127283
statistic Basic.rack[14].node[4].app 	"End-to-End Delay"
field count 127283
field mean 0.00047117725740871
field stddev 9.6159580962306e-005
field sum 59.972854854753
field sqrsum 0.029434779285343
field min 8.0714995e-005
field max 0.0009359256
statistic Basic.rack[14].node[4].app 	hops
field count 127283
field mean 6.2772169103494
field stddev 0.80030890646687
field sum 798983
field sqrsum 5096913
field min 5
field max 7
statistic Basic.rack[14].node[5].app 	throughput
field count 127228
field mean 63614.5
field stddev 36727.704361513
field sum 8093545606
field sqrsum 6.8648644475531e+014
field min 1
field max 127228
statistic Basic.rack[14].node[5].app 	"End-to-End Delay"
field count 127228
field mean 0.00047172257755654
field stddev 9.662654429495e-005
field sum 60.016320097363
field sqrsum 0.029498932151126
field min 0.000117572815
field max 0.000950427191
statistic Basic.rack[14].node[5].app 	hops
field count 127228
field mean 6.2770380733801
field stddev 0.79961161858645
field sum 798615
field sqrsum 5094283
field min 5
field max 7
statistic Basic.rack[14].node[6].app 	throughput
field count 128032
field mean 64016.5
field stddev 36959.799169729
field sum 8196160528
field sqrsum 6.9958328186744e+014
field min 1
field max 128032
statistic Basic.rack[14].node[6].app 	"End-to-End Delay"
field count 128032
field mean 0.00047215072164062
field stddev 9.7053728782088e-005
field sum 60.450401193092
field sqrsum 0.029747679111623
field min 2.2697764e-005
field max 0.000928549005
statistic Basic.rack[14].node[6].app 	hops
field count 128032
field mean 6.2818123594101
field stddev 0.79816772123855
field sum 804273
field sqrsum 5133857
field min 5
field max 7
statistic Basic.rack[14].node[7].app 	throughput
field count 127311
field mean 63656
field stddev 36751.664397684
field sum 8104109016
field sqrsum 6.8783084999366e+014
field min 1
field max 127311
statistic Basic.rack[14].node[7].app 	"End-to-End Delay"
field count 127311
field mean 0.00047157573679183
field stddev 9.6492347204328e-005
field sum 60.036778626704
field sqrsum 0.02949724263491
field min 0.000253909769
field max 0.000940849741
statistic Basic.rack[14].node[7].app 	hops
field count 127311
field mean 6.2788839927422
field stddev 0.79877578862137
field sum 799371
field sqrsum 5100387
field min 5
field max 7
statistic Basic.rack[14].node[8].app 	throughput
field count 127135
field mean 63568
field stddev 36700.857573995
field sum 8081717680
field sqrsum 6.8498214540376e+014
field min 1
field max 127135
statistic Basic.rack[14].node[8].app 	"End-to-End Delay"
field count 127135
field mean 0.00047112519613086
field stddev 9.596437669194e-005
field sum 59.896501810096
field sqrsum 0.029389548712909
field min 0.000383709947
field max 0.00093667037
statistic Basic.rack[14].node[8].app 	hops
field count 127135
field mean 6.2793015298698
field stddev 0.79843280378148
field sum 798319
field sqrsum 5093933
field min 5
field max 7
statistic Basic.rack[14].node[9].app 	throughput
field count 127405
field mean 63703
field stddev 36778.799860336
field sum 8116080715
field sqrsum 6.8935554768996e+014
field min 1
field max 127405
statistic Basic.rack[14].node[9].app 	"End-to-End Delay"
field count 127405
field mean 0.00047107111545341
field stddev 9.5802654981564e-005
field sum 60.016815464342
field sqrsum 0.029441521063917
field min 1.3530267e-005
field max 0.000940154882
statistic Basic.rack[14].node[9].app 	hops
field count 127405
field mean 6.2760723676465
field stddev 0.79942164294552
field sum 799603
field sqrsum 5099787
field min 5
field max 7
statistic Basic.rack[14].eps.queue[0] 	dropsum
field count 0
field mean nan
field stddev nan
field sum 0
field sqrsum 0
field min nan
field max nan
statistic Basic.rack[14].eps.queue[1] 	dropsum
field count 4503097
field mean 2251549
field stddev 1299932.2769103
field sum 10138943547253
field sqrsum 3.0437767560233e+019
field min 1
field max 4503097
statistic Basic.rack[14].eps.queue[2] 	dropsum
field count 0
field mean nan
field stddev nan
field sum 0
field sqrsum 0
field min nan
field max nan
statistic Basic.rack[14].eps.queue[3] 	dropsum
field count 0
field mean nan
field stddev nan
field sum 0
field sqrsum 0
field min nan
field max nan
statistic Basic.rack[15].node[0].app 	throughput
field count 124041
field mean 62021
field stddev 35807.696707552
field sum 7693146861
field sqrsum 6.3617965090582e+014
field min 1
field max 124041
statistic Basic.rack[15].node[0].app 	"End-to-End Delay"
field count 124041
field mean 0.00075236984253102
field stddev 0.00022894531469171
field sum 93.324707637391
field sqrsum 0.076716370910474
field min 0.000231698298
field max 0.001252366353
statistic Basic.rack[15].node[0].app 	hops
field count 124041
field mean 4.3771978619972
field stddev 0.72174089509038
field sum 542952
field sqrsum 2441222
field min 3
field max 5
statistic Basic.rack[15].node[1].app 	throughput
field count 123703
field mean 61852
field stddev 35710.124512058
field sum 7651277956
field sqrsum 6.3099324175336e+014
field min 1
field max 123703
statistic Basic.rack[15].node[1].app 	"End-to-End Delay"
field count 123703
field mean 0.0007524961287255
field stddev 0.00022889474275777
field sum 93.08602861173
field sqrsum 0.076527970717891
field min 9.1085324e-005
field max 0.001251639126
statistic Basic.rack[15].node[1].app 	hops
field count 123703
field mean 4.3783659248361
field stddev 0.72169600166426
field sum 541617
field sqrsum 2435827
field min 3
field max 5
statistic Basic.rack[15].node[2].app 	throughput
field count 123942
field mean 61971.5
field stddev 35779.117869226
field sum 7680871653
field sqrsum 6.3465762323464e+014
field min 1
field max 123942
statistic Basic.rack[15].node[2].app 	"End-to-End Delay"
field count 123942
field mean 0.00075116432502859
field stddev 0.00022902168219819
field sum 93.100808772694
field sqrsum 0.076434827010126
field min 5.4712855e-005
field max 0.001251918474
statistic Basic.rack[15].node[2].app 	hops
field count 123942
field mean 4.375554694938
field stddev 0.72206478626821
field sum 542315
field sqrsum 2437549
field min 3
field max 5
statistic Basic.rack[15].node[3].app 	throughput
field count 123647
field mean 61824
field stddev 35693.95870452
field sum 7644352128
field sqrsum 6.3013668649792e+014
field min 1
field max 123647
statistic Basic.rack[15].node[3].app 	"End-to-End Delay"
field count 123647
field mean 0.00075246293247539
field stddev 0.00022894261169903
field sum 93.039784211784
field sqrsum 0.076489859266186
field min 4.8467472e-005
field max 0.00125227154
statistic Basic.rack[15].node[3].app 	hops
field count 123647
field mean 4.3752699216317
field stddev 0.72304894027998
field sum 540989
field sqrsum 2431615
field min 3
field max 5
statistic Basic.rack[15].node[4].app 	throughput
field count 123494
field mean 61747.5
field stddev 35649.791408927
field sum 7625445765
field sqrsum 6.278004080172e+014
field min 1
field max 123494
statistic Basic.rack[15].node[4].app 	"End-to-End Delay"
field count 123494
field mean 0.0007533300601015
field stddev 0.00022872245600079
field sum 93.031742442175
field sqrsum 0.076544016219639
field min 3.8737617e-005
field max 0.001252588766
statistic Basic.rack[15].node[4].app 	hops
field count 123494
field mean 4.3815569987206
field stddev 0.71961899039833
field sum 541096
field sqrsum 2434794
field min 3
field max 5
statistic Basic.rack[15].node[5].app 	throughput
field count 123622
field mean 61811.5
field stddev 35686.741826155
field sum 7641261253
field sqrsum 6.29754546166e+014
field min 1
field max 123622
statistic Basic.rack[15].node[5].app 	"End-to-End Delay"
field count 123622
field mean 0.00075152110899305
field stddev 0.00022940281603164
field sum 92.904542535939
field sqrsum 0.076325360563394
field min 0.000249354112
field max 0.001251644311
statistic Basic.rack[15].node[5].app 	hops
field count 123622
field mean 4.3742214168999
field stddev 0.72309782006088
field sum 540750
field sqrsum 2429998
field min 3
field max 5
statistic Basic.rack[15].node[6].app 	throughput
field count 123790
field mean 61895.5
field stddev 35735.239248768
field sum 7662043945
field sqrsum 6.3232550064902e+014
field min 1
field max 123790
statistic Basic.rack[15].node[6].app 	"End-to-End Delay"
field count 123790
field mean 0.000751933888999
field stddev 0.00022882684900661
field sum 93.081896119186
field sqrsum 0.0764732379464
field min 0.000138253516
field max 0.001251305655
statistic Basic.rack[15].node[6].app 	hops
field count 123790
field mean 4.375716939979
field stddev 0.72226948643923
field sum 541670
field sqrsum 2434772
field min 3
field max 5
statistic Basic.rack[15].node[7].app 	throughput
field count 123739
field mean 61870
field stddev 35720.516816903
field sum 7655731930
field sqrsum 6.3154429410149e+014
field min 1
field max 123739
statistic Basic.rack[15].node[7].app 	"End-to-End Delay"
field count 123739
field mean 0.00075218816492294
field stddev 0.00022927665791247
field sum 93.0750113394
field sqrsum 0.076514554666745
field min 6.1320913e-005
field max 0.001251320632
statistic Basic.rack[15].node[7].app 	hops
field count 123739
field mean 4.3764455830417
field stddev 0.72201762204462
field sum 541537
field sqrsum 2434513
field min 3
field max 5
statistic Basic.rack[15].node[8].app 	throughput
field count 123152
field mean 61576.5
field stddev 35551.064512895
field sum 7583269128
field sqrsum 6.2259903419068e+014
field min 1
field max 123152
statistic Basic.rack[15].node[8].app 	"End-to-End Delay"
field count 123152
field mean 0.00075150876503709
field stddev 0.00022913215972844
field sum 92.549807431848
field sqrsum 0.076017609455552
field min 3.3675535e-005
field max 0.00125197044
statistic Basic.rack[15].node[8].app 	hops
field count 123152
field mean 4.3765184487463
field stddev 0.72188510681827
field sum 538977
field sqrsum 2423019
field min 3
field max 5
statistic Basic.rack[15].node[9].app 	throughput
field count 124112
field mean 62056.5
field stddev 35828.192642108
field sum 7701956328
field sqrsum 6.372727031726e+014
field min 1
field max 124112
statistic Basic.rack[15].node[9].app 	"End-to-End Delay"
field count 124112
field mean 0.00075161371741429
field stddev 0.00022934395129026
field sum 93.284281695722
field sqrsum 0.076641816542756
field min 1.7995658e-005
field max 0.001251413951
statistic Basic.rack[15].node[9].app 	hops
field count 124112
field mean 4.3758218383396
field stddev 0.72333284299637
field sum 543092
field sqrsum 2441410
field min 3
field max 5
statistic Basic.rack[15].eps.queue[0] 	dropsum
field count 0
field mean nan
field stddev nan
field sum 0
field sqrsum 0
field min nan
field max nan
statistic Basic.rack[15].eps.queue[1] 	dropsum
field count 0
field mean nan
field stddev nan
field sum 0
field sqrsum 0
field min nan
field max nan
statistic Basic.rack[15].eps.queue[2] 	dropsum
field count 0
field mean nan
field stddev nan
field sum 0
field sqrsum 0
field min nan
field max nan
statistic Basic.rack[15].eps.queue[3] 	dropsum
field count 0
field mean nan
field stddev nan
field sum 0
field sqrsum 0
field min nan
field max nan
