version 2
run Basic-49-20180510-17:54:26-19284
attr configname Basic
attr datetime 20180510-17:54:26
attr experiment Basic
attr inifile omnetpp.ini
attr iterationvars "$0=exponential(0.08 ms), $1=4, $2=3"
attr iterationvarsf exponential(0.08_ms),4,3-
attr measurement "$0=exponential(0.08 ms), $1=4, $2=3"
attr network Networks.Basic
attr processid 19284
attr repetition 0
attr replication #0
attr resultdir results
attr runnumber 49
attr seedset 49
param **.frameCapacity 50
param **.packetLength "1024 bytes"
param **.pattern 4
param **.sendIaTime "exponential(0.08 ms)"
param **.tp 3

statistic Basic.rack[0].node[0].app 	throughput
field count 107047
field mean 53524
field stddev 30901.951470201
field sum 5729583628
field sqrsum 4.0889173561222e+014
field min 1
field max 107047
statistic Basic.rack[0].node[0].app 	"End-to-End Delay"
field count 107047
field mean 7.2560462995529e-005
field stddev 0.00013741505418945
field sum 7.7673798822824
field sqrsum 0.0025849432854022
field min 8.496e-007
field max 0.000572567297
statistic Basic.rack[0].node[0].app 	hops
field count 107047
field mean 4.8808000224201
field stddev 0.83250061127514
field sum 522475
field sqrsum 2624285
field min 4
field max 6
statistic Basic.rack[0].node[1].app 	throughput
field count 106902
field mean 53451.5
field stddev 30860.093575684
field sum 5714072253
field sqrsum 4.0723240601756e+014
field min 1
field max 106902
statistic Basic.rack[0].node[1].app 	"End-to-End Delay"
field count 106902
field mean 7.2055518287239e-005
field stddev 0.00013695747513715
field sum 7.7028790159424
field sqrsum 0.002560214411714
field min 8.496e-007
field max 0.000573093793
statistic Basic.rack[0].node[1].app 	hops
field count 106902
field mean 4.880282875905
field stddev 0.83163126315717
field sum 521712
field sqrsum 2620036
field min 4
field max 6
statistic Basic.rack[0].node[2].app 	throughput
field count 107359
field mean 53680
field stddev 30992.018112196
field sum 5763031120
field sqrsum 4.1247742635176e+014
field min 1
field max 107359
statistic Basic.rack[0].node[2].app 	"End-to-End Delay"
field count 107359
field mean 7.196902711515e-005
field stddev 0.00013690343710998
field sum 7.7265227820554
field sqrsum 0.0025682331277991
field min 8.496e-007
field max 0.000556579579
statistic Basic.rack[0].node[2].app 	hops
field count 107359
field mean 4.8775510204082
field stddev 0.83075918516295
field sum 523649
field sqrsum 2628219
field min 4
field max 6
statistic Basic.rack[0].node[3].app 	throughput
field count 106623
field mean 53312
field stddev 30779.553213132
field sum 5684285376
field sqrsum 4.0405226785862e+014
field min 1
field max 106623
statistic Basic.rack[0].node[3].app 	"End-to-End Delay"
field count 106623
field mean 7.2192705762833e-005
field stddev 0.00013718506107111
field sum 7.6974028665505
field sqrsum 0.002562294763168
field min 8.496e-007
field max 0.000573810258
statistic Basic.rack[0].node[3].app 	hops
field count 106623
field mean 4.8774842201026
field stddev 0.83289158588163
field sum 520052
field sqrsum 2610510
field min 4
field max 6
statistic Basic.rack[0].node[4].app 	throughput
field count 107097
field mean 53549
field stddev 30916.385226931
field sum 5734937253
field sqrsum 4.0946496163544e+014
field min 1
field max 107097
statistic Basic.rack[0].node[4].app 	"End-to-End Delay"
field count 107097
field mean 7.3431118290843e-005
field stddev 0.00013845025820697
field sum 7.8642524755944
field sqrsum 0.002630347745049
field min 8.496e-007
field max 0.000533723377
statistic Basic.rack[0].node[4].app 	hops
field count 107097
field mean 4.8746463486372
field stddev 0.83271630319578
field sum 522060
field sqrsum 2619120
field min 4
field max 6
statistic Basic.rack[0].node[5].app 	throughput
field count 106846
field mean 53423.5
field stddev 30843.927768147
field sum 5708087281
field sqrsum 4.0659276511291e+014
field min 1
field max 106846
statistic Basic.rack[0].node[5].app 	"End-to-End Delay"
field count 106846
field mean 7.2569116035962e-005
field stddev 0.00013747982052885
field sum 7.7537197719784
field sqrsum 0.0025821259938128
field min 8.496e-007
field max 0.000586126972
statistic Basic.rack[0].node[5].app 	hops
field count 106846
field mean 4.8779271100462
field stddev 0.83153938570424
field sum 521187
field sqrsum 2616191
field min 4
field max 6
statistic Basic.rack[0].node[6].app 	throughput
field count 107766
field mean 53883.5
field stddev 31109.508891977
field sum 5806809261
field sqrsum 4.1718634015037e+014
field min 1
field max 107766
statistic Basic.rack[0].node[6].app 	"End-to-End Delay"
field count 107766
field mean 7.2472980198295e-005
field stddev 0.00013738280903314
field sum 7.8101231840494
field sqrsum 0.002599983415879
field min 8.496e-007
field max 0.00055253179
statistic Basic.rack[0].node[6].app 	hops
field count 107766
field mean 4.8784496037711
field stddev 0.83190682106625
field sum 525731
field sqrsum 2639333
field min 4
field max 6
statistic Basic.rack[0].node[7].app 	throughput
field count 106951
field mean 53476
field stddev 30874.23865728
field sum 5719311676
field sqrsum 4.0779264181048e+014
field min 1
field max 106951
statistic Basic.rack[0].node[7].app 	"End-to-End Delay"
field count 106951
field mean 7.2154724630994e-005
field stddev 0.00013695217599527
field sum 7.7170199540094
field sqrsum 0.0025627627953807
field min 8.496e-007
field max 0.000550877175
statistic Basic.rack[0].node[7].app 	hops
field count 106951
field mean 4.8801226729998
field stddev 0.83206009954908
field sum 521934
field sqrsum 2621146
field min 4
field max 6
statistic Basic.rack[0].node[8].app 	throughput
field count 107551
field mean 53776
field stddev 31047.443738039
field sum 5783662576
field sqrsum 4.1469439036178e+014
field min 1
field max 107551
statistic Basic.rack[0].node[8].app 	"End-to-End Delay"
field count 107551
field mean 7.181338838357e-005
field stddev 0.00013672376922204
field sum 7.7236017340414
field sqrsum 0.0025651320055556
field min 8.496e-007
field max 0.000591011297
statistic Basic.rack[0].node[8].app 	hops
field count 107551
field mean 4.8812749300332
field stddev 0.83130855596286
field sum 524986
field sqrsum 2636926
field min 4
field max 6
statistic Basic.rack[0].node[9].app 	throughput
field count 106702
field mean 53351.5
field stddev 30802.358548765
field sum 5692711753
field sqrsum 4.0495105054966e+014
field min 1
field max 106702
statistic Basic.rack[0].node[9].app 	"End-to-End Delay"
field count 106702
field mean 7.2031693984493e-005
field stddev 0.00013690873222256
field sum 7.6859258115333
field sqrsum 0.0025536339023476
field min 8.496e-007
field max 0.000555527574
statistic Basic.rack[0].node[9].app 	hops
field count 106702
field mean 4.8781934734119
field stddev 0.83147540653006
field sum 520513
field sqrsum 2612931
field min 4
field max 6
statistic Basic.rack[0].eps.queue[0] 	dropsum
field count 0
field mean nan
field stddev nan
field sum 0
field sqrsum 0
field min nan
field max nan
statistic Basic.rack[0].eps.queue[1] 	dropsum
field count 0
field mean nan
field stddev nan
field sum 0
field sqrsum 0
field min nan
field max nan
statistic Basic.rack[0].eps.queue[2] 	dropsum
field count 0
field mean nan
field stddev nan
field sum 0
field sqrsum 0
field min nan
field max nan
statistic Basic.rack[0].eps.queue[3] 	dropsum
field count 0
field mean nan
field stddev nan
field sum 0
field sqrsum 0
field min nan
field max nan
statistic Basic.rack[1].node[0].app 	throughput
field count 106368
field mean 53184.5
field stddev 30705.941053809
field sum 5657128896
field sqrsum 4.0116020998278e+014
field min 1
field max 106368
statistic Basic.rack[1].node[0].app 	"End-to-End Delay"
field count 106368
field mean 6.7442238566732e-005
field stddev 0.00014217864193887
field sum 7.1736960318661
field sqrsum 0.0026339941580901
field min 8.496e-007
field max 0.000547896468
statistic Basic.rack[1].node[0].app 	hops
field count 106368
field mean 4.7070359506619
field stddev 0.45512422755279
field sum 500678
field sqrsum 2378742
field min 4
field max 5
statistic Basic.rack[1].node[1].app 	throughput
field count 107375
field mean 53688
field stddev 30996.636914349
field sum 5764749000
field sqrsum 4.12661870833e+014
field min 1
field max 107375
statistic Basic.rack[1].node[1].app 	"End-to-End Delay"
field count 107375
field mean 6.7117501641622e-005
field stddev 0.0001417181645015
field sum 7.2067417387692
field sqrsum 0.0026402020127656
field min 8.496e-007
field max 0.000594973366
statistic Basic.rack[1].node[1].app 	hops
field count 107375
field mean 4.7075203725262
field stddev 0.45490353067984
field sum 505470
field sqrsum 2401730
field min 4
field max 5
statistic Basic.rack[1].node[2].app 	throughput
field count 107232
field mean 53616.5
field stddev 30955.356370102
field sum 5749404528
field sqrsum 4.1101534736584e+014
field min 1
field max 107232
statistic Basic.rack[1].node[2].app 	"End-to-End Delay"
field count 107232
field mean 6.8050346326948e-005
field stddev 0.00014284974965187
field sum 7.2971747373313
field sqrsum 0.0026847365202483
field min 8.496e-007
field max 0.000625173312
statistic Basic.rack[1].node[2].app 	hops
field count 107232
field mean 4.7068132646971
field stddev 0.45522544534114
field sum 504721
field sqrsum 2397849
field min 4
field max 5
statistic Basic.rack[1].node[3].app 	throughput
field count 107247
field mean 53624
field stddev 30959.686497121
field sum 5751013128
field sqrsum 4.1118785363012e+014
field min 1
field max 107247
statistic Basic.rack[1].node[3].app 	"End-to-End Delay"
field count 107247
field mean 6.8310949592996e-005
field stddev 0.00014311186974631
field sum 7.3261444110001
field sqrsum 0.0026969619864218
field min 8.496e-007
field max 0.000603356909
statistic Basic.rack[1].node[3].app 	hops
field count 107247
field mean 4.7088776376029
field stddev 0.45428191332941
field sum 505013
field sqrsum 2400177
field min 4
field max 5
statistic Basic.rack[1].node[4].app 	throughput
field count 107005
field mean 53503
field stddev 30889.827114548
field sum 5725088515
field sqrsum 4.0841063939456e+014
field min 1
field max 107005
statistic Basic.rack[1].node[4].app 	"End-to-End Delay"
field count 107005
field mean 6.7460316050335e-005
field stddev 0.00014210513906501
field sum 7.2185911189661
field sqrsum 0.002647793362515
field min 8.496e-007
field max 0.000565960001
statistic Basic.rack[1].node[4].app 	hops
field count 107005
field mean 4.7082846595953
field stddev 0.45455410185119
field sum 503810
field sqrsum 2394190
field min 4
field max 5
statistic Basic.rack[1].node[5].app 	throughput
field count 107220
field mean 53610.5
field stddev 30951.892268487
field sum 5748117810
field sqrsum 4.1087737709807e+014
field min 1
field max 107220
statistic Basic.rack[1].node[5].app 	"End-to-End Delay"
field count 107220
field mean 6.7376020979129e-005
field stddev 0.00014211406136505
field sum 7.2240569693822
field sqrsum 0.0026521667157639
field min 8.496e-007
field max 0.000614381345
statistic Basic.rack[1].node[5].app 	hops
field count 107220
field mean 4.7058850960642
field stddev 0.45564598489209
field sum 504565
field sqrsum 2396685
field min 4
field max 5
statistic Basic.rack[1].node[6].app 	throughput
field count 107180
field mean 53590.5
field stddev 30940.345263103
field sum 5743829790
field sqrsum 4.1041769920473e+014
field min 1
field max 107180
statistic Basic.rack[1].node[6].app 	"End-to-End Delay"
field count 107180
field mean 6.7637235662615e-005
field stddev 0.00014235446010566
field sum 7.2493589183191
field sqrsum 0.0026622867727663
field min 8.496e-007
field max 0.000568372059
statistic Basic.rack[1].node[6].app 	hops
field count 107180
field mean 4.7096006717671
field stddev 0.45394876477793
field sum 504775
field sqrsum 2399375
field min 4
field max 5
statistic Basic.rack[1].node[7].app 	throughput
field count 107349
field mean 53675
field stddev 30989.13136085
field sum 5761957575
field sqrsum 4.1236217646498e+014
field min 1
field max 107349
statistic Basic.rack[1].node[7].app 	"End-to-End Delay"
field count 107349
field mean 6.7636646804722e-005
field stddev 0.00014239866234876
field sum 7.2607263978401
field sqrsum 0.0026678272719645
field min 8.496e-007
field max 0.000553234875
statistic Basic.rack[1].node[7].app 	hops
field count 107349
field mean 4.7076265265629
field stddev 0.45485508984958
field sum 505359
field sqrsum 2401251
field min 4
field max 5
statistic Basic.rack[1].node[8].app 	throughput
field count 106858
field mean 53429.5
field stddev 30847.391869762
field sum 5709369511
field sqrsum 4.0672977459413e+014
field min 1
field max 106858
statistic Basic.rack[1].node[8].app 	"End-to-End Delay"
field count 106858
field mean 6.7962761683114e-005
field stddev 0.00014276124378485
field sum 7.2623647879342
field sqrsum 0.0026713985986269
field min 8.496e-007
field max 0.000565952015
statistic Basic.rack[1].node[8].app 	hops
field count 106858
field mean 4.7075932545996
field stddev 0.45487028582275
field sum 503044
field sqrsum 2390236
field min 4
field max 5
statistic Basic.rack[1].node[9].app 	throughput
field count 106827
field mean 53414
field stddev 30838.44294059
field sum 5706057378
field sqrsum 4.0637589636553e+014
field min 1
field max 106827
statistic Basic.rack[1].node[9].app 	"End-to-End Delay"
field count 106827
field mean 6.7647614110048e-005
field stddev 0.00014229452267525
field sum 7.2265916725341
field sqrsum 0.0026518458161898
field min 8.496e-007
field max 0.000586643368
statistic Basic.rack[1].node[9].app 	hops
field count 106827
field mean 4.7098954384191
field stddev 0.45381255246548
field sum 503144
field sqrsum 2391756
field min 4
field max 5
statistic Basic.rack[1].eps.queue[0] 	dropsum
field count 0
field mean nan
field stddev nan
field sum 0
field sqrsum 0
field min nan
field max nan
statistic Basic.rack[1].eps.queue[1] 	dropsum
field count 30411
field mean 15206
field stddev 8779.0438545436
field sum 462429666
field sqrsum 9375453191706
field min 1
field max 30411
statistic Basic.rack[1].eps.queue[2] 	dropsum
field count 0
field mean nan
field stddev nan
field sum 0
field sqrsum 0
field min nan
field max nan
statistic Basic.rack[1].eps.queue[3] 	dropsum
field count 0
field mean nan
field stddev nan
field sum 0
field sqrsum 0
field min nan
field max nan
statistic Basic.rack[2].node[0].app 	throughput
field count 93649
field mean 46825
field stddev 27034.282016852
field sum 4385114425
field sqrsum 2.7377584889602e+014
field min 1
field max 93649
statistic Basic.rack[2].node[0].app 	"End-to-End Delay"
field count 93649
field mean 0.0002921903928068
field stddev 0.00026519094221916
field sum 27.363338095964
field sqrsum 0.014581215840249
field min 8.496e-007
field max 0.000837005322
statistic Basic.rack[2].node[0].app 	hops
field count 93649
field mean 4.8646862219565
field stddev 0.7186801749608
field sum 455573
field sqrsum 2264589
field min 4
field max 6
statistic Basic.rack[2].node[1].app 	throughput
field count 93213
field mean 46607
field stddev 26908.419658166
field sum 4344378291
field sqrsum 2.6996980388542e+014
field min 1
field max 93213
statistic Basic.rack[2].node[1].app 	"End-to-End Delay"
field count 93213
field mean 0.00029157779805372
field stddev 0.00026505109124788
field sum 27.178841289981
field sqrsum 0.014473083668518
field min 8.496e-007
field max 0.000837002674
statistic Basic.rack[2].node[1].app 	hops
field count 93213
field mean 4.8638816474097
field stddev 0.71871615768321
field sum 453377
field sqrsum 2253321
field min 4
field max 6
statistic Basic.rack[2].node[2].app 	throughput
field count 93517
field mean 46759
field stddev 26996.176899085
field sum 4372761403
field sqrsum 2.7261980967004e+014
field min 1
field max 93517
statistic Basic.rack[2].node[2].app 	"End-to-End Delay"
field count 93517
field mean 0.00029064104220249
field stddev 0.00026447633400408
field sum 27.17987834365
field sqrsum 0.014440820204145
field min 8.496e-007
field max 0.00083680554
statistic Basic.rack[2].node[2].app 	hops
field count 93517
field mean 4.8621106322915
field stddev 0.71599535604654
field sum 454690
field sqrsum 2258694
field min 4
field max 6
statistic Basic.rack[2].node[3].app 	throughput
field count 93576
field mean 46788.5
field stddev 27013.208732026
field sum 4378280676
field sqrsum 2.7313612111848e+014
field min 1
field max 93576
statistic Basic.rack[2].node[3].app 	"End-to-End Delay"
field count 93576
field mean 0.00029106927190894
field stddev 0.0002649554379108
field sum 27.237098188151
field sqrsum 0.014496976853684
field min 8.496e-007
field max 0.00083696705
statistic Basic.rack[2].node[3].app 	hops
field count 93576
field mean 4.8640570231683
field stddev 0.71924552591445
field sum 455159
field sqrsum 2262327
field min 4
field max 6
statistic Basic.rack[2].node[4].app 	throughput
field count 93461
field mean 46731
field stddev 26980.011091547
field sum 4367525991
field sqrsum 2.7213035360523e+014
field min 1
field max 93461
statistic Basic.rack[2].node[4].app 	"End-to-End Delay"
field count 93461
field mean 0.00029183473211327
field stddev 0.00026426123488869
field sum 27.275165898038
field sqrsum 0.014486526397956
field min 8.496e-007
field max 0.000837042693
statistic Basic.rack[2].node[4].app 	hops
field count 93461
field mean 4.865548196574
field stddev 0.71710236942881
field sum 454739
field sqrsum 2260615
field min 4
field max 6
statistic Basic.rack[2].node[5].app 	throughput
field count 93676
field mean 46838.5
field stddev 27042.076245486
field sum 4387643326
field sqrsum 2.7401271335203e+014
field min 1
field max 93676
statistic Basic.rack[2].node[5].app 	"End-to-End Delay"
field count 93676
field mean 0.00029115068555896
field stddev 0.00026440844337255
field sum 27.273831620421
field sqrsum 0.014489784974113
field min 8.496e-007
field max 0.000836807875
statistic Basic.rack[2].node[5].app 	hops
field count 93676
field mean 4.8641487680943
field stddev 0.71780257462511
field sum 455654
field sqrsum 2264634
field min 4
field max 6
statistic Basic.rack[2].node[6].app 	throughput
field count 93301
field mean 46651
field stddev 26933.823070011
field sum 4352584951
field sqrsum 2.7073513653715e+014
field min 1
field max 93301
statistic Basic.rack[2].node[6].app 	"End-to-End Delay"
field count 93301
field mean 0.00029185427324066
field stddev 0.00026477928628018
field sum 27.230295547627
field sqrsum 0.014488361089517
field min 8.496e-007
field max 0.000837020263
statistic Basic.rack[2].node[6].app 	hops
field count 93301
field mean 4.8654248078799
field stddev 0.71749141621658
field sum 453949
field sqrsum 2256685
field min 4
field max 6
statistic Basic.rack[2].node[7].app 	throughput
field count 93691
field mean 46846
field stddev 27046.406372505
field sum 4389048586
field sqrsum 2.7414436373015e+014
field min 1
field max 93691
statistic Basic.rack[2].node[7].app 	"End-to-End Delay"
field count 93691
field mean 0.00029082493751007
field stddev 0.00026491910576909
field sum 27.247679220256
field sqrsum 0.014499668609959
field min 8.496e-007
field max 0.000836902251
statistic Basic.rack[2].node[7].app 	hops
field count 93691
field mean 4.8636048286388
field stddev 0.71968202340062
field sum 455676
field sqrsum 2264754
field min 4
field max 6
statistic Basic.rack[2].node[8].app 	throughput
field count 93207
field mean 46604
field stddev 26906.687607359
field sum 4343819028
field sqrsum 2.6991767470154e+014
field min 1
field max 93207
statistic Basic.rack[2].node[8].app 	"End-to-End Delay"
field count 93207
field mean 0.00029364051256495
field stddev 0.00026470997564208
field sum 27.369351254642
field sqrsum 0.014567822555463
field min 8.496e-007
field max 0.00083692227
statistic Basic.rack[2].node[8].app 	hops
field count 93207
field mean 4.8706534916905
field stddev 0.71685348481702
field sum 453979
field sqrsum 2259071
field min 4
field max 6
statistic Basic.rack[2].node[9].app 	throughput
field count 93490
field mean 46745.5
field stddev 26988.38267045
field sum 4370236795
field sqrsum 2.7238374872196e+014
field min 1
field max 93490
statistic Basic.rack[2].node[9].app 	"End-to-End Delay"
field count 93490
field mean 0.0002919286715673
field stddev 0.00026540837635838
field sum 27.292411504827
field sqrsum 0.014552952760355
field min 8.496e-007
field max 0.000836949987
statistic Basic.rack[2].node[9].app 	hops
field count 93490
field mean 4.8653652797091
field stddev 0.71943268047971
field sum 454863
field sqrsum 2261463
field min 4
field max 6
statistic Basic.rack[2].eps.queue[0] 	dropsum
field count 0
field mean nan
field stddev nan
field sum 0
field sqrsum 0
field min nan
field max nan
statistic Basic.rack[2].eps.queue[1] 	dropsum
field count 1256295
field mean 628148
field stddev 362661.27255362
field sum 789139191660
field sqrsum 6.6092801023767e+017
field min 1
field max 1256295
statistic Basic.rack[2].eps.queue[2] 	dropsum
field count 0
field mean nan
field stddev nan
field sum 0
field sqrsum 0
field min nan
field max nan
statistic Basic.rack[2].eps.queue[3] 	dropsum
field count 0
field mean nan
field stddev nan
field sum 0
field sqrsum 0
field min nan
field max nan
statistic Basic.rack[3].node[0].app 	throughput
field count 64806
field mean 32403.5
field stddev 18708.025109562
field sum 2099941221
field sqrsum 90726560492491
field min 1
field max 64806
statistic Basic.rack[3].node[0].app 	"End-to-End Delay"
field count 64806
field mean 0.00058834444546019
field stddev 0.00016336361471259
field sum 38.128250132493
field sqrsum 0.024162038674577
field min 0.000178446126
field max 0.000868473368
statistic Basic.rack[3].node[0].app 	hops
field count 64806
field mean 4.299925932784
field stddev 0.78237016365665
field sum 278661
field sqrsum 1237889
field min 3
field max 5
statistic Basic.rack[3].node[1].app 	throughput
field count 64469
field mean 32235
field stddev 18610.741589201
field sum 2078158215
field sqrsum 89318547361295
field min 1
field max 64469
statistic Basic.rack[3].node[1].app 	"End-to-End Delay"
field count 64469
field mean 0.00058918504453602
field stddev 0.00016345682205248
field sum 37.984170636193
field sqrsum 0.024102169845273
field min 7.7220668e-005
field max 0.000872709977
statistic Basic.rack[3].node[1].app 	hops
field count 64469
field mean 4.3000666987234
field stddev 0.78343163028662
field sum 277221
field sqrsum 1231637
field min 3
field max 5
statistic Basic.rack[3].node[2].app 	throughput
field count 63996
field mean 31998.5
field stddev 18474.198250533
field sum 2047776006
field sqrsum 87366998111986
field min 1
field max 63996
statistic Basic.rack[3].node[2].app 	"End-to-End Delay"
field count 63996
field mean 0.00058698075936946
field stddev 0.00016334311423996
field sum 37.564420676608
field sqrsum 0.023757041039219
field min 0.000146856348
field max 0.000879295654
statistic Basic.rack[3].node[2].app 	hops
field count 63996
field mean 4.2967997999875
field stddev 0.78622590737058
field sum 274978
field sqrsum 1221084
field min 3
field max 5
statistic Basic.rack[3].node[3].app 	throughput
field count 64499
field mean 32250
field stddev 18619.401843239
field sum 2080092750
field sqrsum 89443294885750
field min 1
field max 64499
statistic Basic.rack[3].node[3].app 	"End-to-End Delay"
field count 64499
field mean 0.00058832725830867
field stddev 0.00016325309994274
field sum 37.946519833651
field sqrsum 0.024043945237277
field min 6.3331859e-005
field max 0.000869852274
statistic Basic.rack[3].node[3].app 	hops
field count 64499
field mean 4.298469743717
field stddev 0.78151493208253
field sum 277247
field sqrsum 1231131
field min 3
field max 5
statistic Basic.rack[3].node[4].app 	throughput
field count 63935
field mean 31968
field stddev 18456.589067322
field sum 2043874080
field sqrsum 87117407494560
field min 1
field max 63935
statistic Basic.rack[3].node[4].app 	"End-to-End Delay"
field count 63935
field mean 0.0005882340997079
field stddev 0.0001636086854945
field sum 37.608747164825
field sqrsum 0.023834120180744
field min 0.000197571785
field max 0.000881942191
statistic Basic.rack[3].node[4].app 	hops
field count 63935
field mean 4.2970986157817
field stddev 0.78406179488319
field sum 274735
field sqrsum 1219867
field min 3
field max 5
statistic Basic.rack[3].node[5].app 	throughput
field count 64230
field mean 32115.5
field stddev 18541.74823203
field sum 2062778565
field sqrsum 88328865746155
field min 1
field max 64230
statistic Basic.rack[3].node[5].app 	"End-to-End Delay"
field count 64230
field mean 0.0005881404102305
field stddev 0.00016360768365894
field sum 37.776258549105
field sqrsum 0.023936992297368
field min 8.7417559e-005
field max 0.000873968322
statistic Basic.rack[3].node[5].app 	hops
field count 64230
field mean 4.2951891639421
field stddev 0.78418340651886
field sum 275880
field sqrsum 1224454
field min 3
field max 5
statistic Basic.rack[3].node[6].app 	throughput
field count 64160
field mean 32080.5
field stddev 18521.540972608
field sum 2058284880
field sqrsum 88040391362160
field min 1
field max 64160
statistic Basic.rack[3].node[6].app 	"End-to-End Delay"
field count 64160
field mean 0.00058732071137596
field stddev 0.00016373415476807
field sum 37.682496841882
field sqrsum 0.02385174136248
field min 4.036626e-005
field max 0.000876069207
statistic Basic.rack[3].node[6].app 	hops
field count 64160
field mean 4.2961346633416
field stddev 0.78520906278813
field sum 275640
field sqrsum 1223744
field min 3
field max 5
statistic Basic.rack[3].node[7].app 	throughput
field count 63859
field mean 31930
field stddev 18434.649757092
field sum 2039017870
field sqrsum 86807107779510
field min 1
field max 63859
statistic Basic.rack[3].node[7].app 	"End-to-End Delay"
field count 63859
field mean 0.00058929496958316
field stddev 0.00016356637321274
field sum 37.631787462611
field sqrsum 0.023884677326582
field min 7.8855445e-005
field max 0.000870914058
statistic Basic.rack[3].node[7].app 	hops
field count 63859
field mean 4.3026354938223
field stddev 0.7821057947911
field sum 274762
field sqrsum 1221262
field min 3
field max 5
statistic Basic.rack[3].node[8].app 	throughput
field count 64149
field mean 32075
field stddev 18518.365546127
field sum 2057579175
field sqrsum 87995116857775
field min 1
field max 64149
statistic Basic.rack[3].node[8].app 	"End-to-End Delay"
field count 64149
field mean 0.0005887295364183
field stddev 0.00016356235780707
field sum 37.766411031697
field sqrsum 0.023950330323368
field min 0.000122199745
field max 0.000869936879
statistic Basic.rack[3].node[8].app 	hops
field count 64149
field mean 4.2970428221796
field stddev 0.78344201860169
field sum 275651
field sqrsum 1223857
field min 3
field max 5
statistic Basic.rack[3].node[9].app 	throughput
field count 64119
field mean 32060
field stddev 18509.705292089
field sum 2055655140
field sqrsum 87871719832820
field min 1
field max 64119
statistic Basic.rack[3].node[9].app 	"End-to-End Delay"
field count 64119
field mean 0.00058906473482679
field stddev 0.00016386942334237
field sum 37.770241732359
field sqrsum 0.023970890132609
field min 4.3837967e-005
field max 0.0008780605
statistic Basic.rack[3].node[9].app 	hops
field count 64119
field mean 4.305868775246
field stddev 0.7808783975575
field sum 276088
field sqrsum 1227896
field min 3
field max 5
statistic Basic.rack[3].eps.queue[0] 	dropsum
field count 0
field mean nan
field stddev nan
field sum 0
field sqrsum 0
field min nan
field max nan
statistic Basic.rack[3].eps.queue[1] 	dropsum
field count 0
field mean nan
field stddev nan
field sum 0
field sqrsum 0
field min nan
field max nan
statistic Basic.rack[3].eps.queue[2] 	dropsum
field count 0
field mean nan
field stddev nan
field sum 0
field sqrsum 0
field min nan
field max nan
statistic Basic.rack[3].eps.queue[3] 	dropsum
field count 0
field mean nan
field stddev nan
field sum 0
field sqrsum 0
field min nan
field max nan
statistic Basic.rack[4].node[0].app 	throughput
field count 106585
field mean 53293
field stddev 30768.583558017
field sum 5680234405
field sqrsum 4.0362041611608e+014
field min 1
field max 106585
statistic Basic.rack[4].node[0].app 	"End-to-End Delay"
field count 106585
field mean 7.1351728828439e-005
field stddev 0.00013640440996814
field sum 7.6050240171792
field sqrsum 0.0025257508948621
field min 8.496e-007
field max 0.000552211362
statistic Basic.rack[4].node[0].app 	hops
field count 106585
field mean 4.8791199512126
field stddev 0.83012921575868
field sum 520041
field sqrsum 2610791
field min 4
field max 6
statistic Basic.rack[4].node[1].app 	throughput
field count 106837
field mean 53419
field stddev 30841.329691936
field sum 5707125703
field sqrsum 4.0649002819618e+014
field min 1
field max 106837
statistic Basic.rack[4].node[1].app 	"End-to-End Delay"
field count 106837
field mean 7.1154598076054e-005
field stddev 0.00013611257951281
field sum 7.6019437946513
field sqrsum 0.0025202247575542
field min 8.496e-007
field max 0.000548084851
statistic Basic.rack[4].node[1].app 	hops
field count 106837
field mean 4.8789089922031
field stddev 0.83209000980571
field sum 521248
field sqrsum 2617092
field min 4
field max 6
statistic Basic.rack[4].node[2].app 	throughput
field count 106387
field mean 53194
field stddev 30711.425881366
field sum 5659150078
field sqrsum 4.0137521928215e+014
field min 1
field max 106387
statistic Basic.rack[4].node[2].app 	"End-to-End Delay"
field count 106387
field mean 7.1665328051447e-005
field stddev 0.00013662189598237
field sum 7.6242592554093
field sqrsum 0.002532147441031
field min 8.496e-007
field max 0.000563002713
statistic Basic.rack[4].node[2].app 	hops
field count 106387
field mean 4.8803801216314
field stddev 0.83325747832838
field sum 519209
field sqrsum 2607803
field min 4
field max 6
statistic Basic.rack[4].node[3].app 	throughput
field count 106932
field mean 53466.5
field stddev 30868.753829722
field sum 5717279778
field sqrsum 4.0757534657399e+014
field min 1
field max 106932
statistic Basic.rack[4].node[3].app 	"End-to-End Delay"
field count 106932
field mean 7.1636416995786e-005
field stddev 0.00013669228497532
field sum 7.6602253421934
field sqrsum 0.0025467333896017
field min 8.496e-007
field max 0.000579456731
statistic Basic.rack[4].node[3].app 	hops
field count 106932
field mean 4.8772490928815
field stddev 0.83277839477002
field sum 521534
field sqrsum 2617810
field min 4
field max 6
statistic Basic.rack[4].node[4].app 	throughput
field count 106761
field mean 53381
field stddev 30819.390381706
field sum 5699008941
field sqrsum 4.0562316203638e+014
field min 1
field max 106761
statistic Basic.rack[4].node[4].app 	"End-to-End Delay"
field count 106761
field mean 7.1133249573809e-005
field stddev 0.00013623993752341
field sum 7.5942568577494
field sqrsum 0.0025218107531246
field min 8.496e-007
field max 0.000535301364
statistic Basic.rack[4].node[4].app 	hops
field count 106761
field mean 4.8749356038254
field stddev 0.8311231222088
field sum 520453
field sqrsum 2610921
field min 4
field max 6
statistic Basic.rack[4].node[5].app 	throughput
field count 106512
field mean 53256.5
field stddev 30747.510273191
field sum 5672456328
field sqrsum 4.027916697574e+014
field min 1
field max 106512
statistic Basic.rack[4].node[5].app 	"End-to-End Delay"
field count 106512
field mean 7.1548389459594e-005
field stddev 0.00013650110747362
field sum 7.6207620581203
field sqrsum 0.0025298250341613
field min 8.496e-007
field max 0.000563122688
statistic Basic.rack[4].node[5].app 	hops
field count 106512
field mean 4.8827925491963
field stddev 0.83161235334423
field sum 520076
field sqrsum 2613084
field min 4
field max 6
statistic Basic.rack[4].node[6].app 	throughput
field count 106769
field mean 53385
field stddev 30821.699782783
field sum 5699863065
field sqrsum 4.0571435301234e+014
field min 1
field max 106769
statistic Basic.rack[4].node[6].app 	"End-to-End Delay"
field count 106769
field mean 7.0820348731751e-005
field stddev 0.00013580244255299
field sum 7.5614178137403
field sqrsum 0.0025045500962454
field min 8.496e-007
field max 0.000539110775
statistic Basic.rack[4].node[6].app 	hops
field count 106769
field mean 4.8769118377057
field stddev 0.83134120390901
field sum 520703
field sqrsum 2613213
field min 4
field max 6
statistic Basic.rack[4].node[7].app 	throughput
field count 106407
field mean 53204
field stddev 30717.199384058
field sum 5661278028
field sqrsum 4.0160162784294e+014
field min 1
field max 106407
statistic Basic.rack[4].node[7].app 	"End-to-End Delay"
field count 106407
field mean 7.1697065581169e-005
field stddev 0.00013688979238608
field sum 7.6290696572954
field sqrsum 0.0025409042840453
field min 8.496e-007
field max 0.000598569617
statistic Basic.rack[4].node[7].app 	hops
field count 106407
field mean 4.8745007377334
field stddev 0.83165708377157
field sum 518681
field sqrsum 2601907
field min 4
field max 6
statistic Basic.rack[4].node[8].app 	throughput
field count 106943
field mean 53472
field stddev 30871.929256203
field sum 5718456096
field sqrsum 4.0770113966838e+014
field min 1
field max 106943
statistic Basic.rack[4].node[8].app 	"End-to-End Delay"
field count 106943
field mean 7.0478139520112e-005
field stddev 0.00013547653272427
field sum 7.5371436746993
field sqrsum 0.0024940056661472
field min 8.496e-007
field max 0.000595932754
statistic Basic.rack[4].node[8].app 	hops
field count 106943
field mean 4.8791973294185
field stddev 0.83354130342313
field sum 521796
field sqrsum 2620248
field min 4
field max 6
statistic Basic.rack[4].node[9].app 	throughput
field count 106556
field mean 53278.5
field stddev 30760.211979114
field sum 5677143846
field sqrsum 4.0329105215087e+014
field min 1
field max 106556
statistic Basic.rack[4].node[9].app 	"End-to-End Delay"
field count 106556
field mean 7.1473029773718e-005
field stddev 0.00013640628418668
field sum 7.6158801605683
field sqrsum 0.0025269642164976
field min 8.496e-007
field max 0.000561050525
statistic Basic.rack[4].node[9].app 	hops
field count 106556
field mean 4.8810390780435
field stddev 0.8325757663835
field sum 520104
field sqrsum 2612510
field min 4
field max 6
statistic Basic.rack[4].eps.queue[0] 	dropsum
field count 0
field mean nan
field stddev nan
field sum 0
field sqrsum 0
field min nan
field max nan
statistic Basic.rack[4].eps.queue[1] 	dropsum
field count 0
field mean nan
field stddev nan
field sum 0
field sqrsum 0
field min nan
field max nan
statistic Basic.rack[4].eps.queue[2] 	dropsum
field count 0
field mean nan
field stddev nan
field sum 0
field sqrsum 0
field min nan
field max nan
statistic Basic.rack[4].eps.queue[3] 	dropsum
field count 0
field mean nan
field stddev nan
field sum 0
field sqrsum 0
field min nan
field max nan
statistic Basic.rack[5].node[0].app 	throughput
field count 106688
field mean 53344.5
field stddev 30798.31709688
field sum 5691218016
field sqrsum 4.0479167553334e+014
field min 1
field max 106688
statistic Basic.rack[5].node[0].app 	"End-to-End Delay"
field count 106688
field mean 6.6168646531889e-005
field stddev 0.00014047242823306
field sum 7.0594005611941
field sqrsum 0.0025723125380173
field min 8.496e-007
field max 0.000569543247
statistic Basic.rack[5].node[0].app 	hops
field count 106688
field mean 4.7070054739052
field stddev 0.45513808390699
field sum 502181
field sqrsum 2385869
field min 4
field max 5
statistic Basic.rack[5].node[1].app 	throughput
field count 106473
field mean 53237
field stddev 30736.251942942
field sum 5668303101
field sqrsum 4.0234938014955e+014
field min 1
field max 106473
statistic Basic.rack[5].node[1].app 	"End-to-End Delay"
field count 106473
field mean 6.635812505379e-005
field stddev 0.00014065750465343
field sum 7.0653486488522
field sqrsum 0.0025753421522805
field min 8.496e-007
field max 0.000565072325
statistic Basic.rack[5].node[1].app 	hops
field count 106473
field mean 4.705446451213
field stddev 0.45584395059427
field sum 501003
field sqrsum 2379567
field min 4
field max 5
statistic Basic.rack[5].node[2].app 	throughput
field count 106981
field mean 53491
field stddev 30882.898911318
field sum 5722520671
field sqrsum 4.0813589677639e+014
field min 1
field max 106981
statistic Basic.rack[5].node[2].app 	"End-to-End Delay"
field count 106981
field mean 6.6312938198522e-005
field stddev 0.00014064503512568
field sum 7.0942244414161
field sqrsum 0.002586613018321
field min 8.496e-007
field max 0.000577010398
statistic Basic.rack[5].node[2].app 	hops
field count 106981
field mean 4.7069105729055
field stddev 0.45518122931259
field sum 503550
field sqrsum 2392330
field min 4
field max 5
statistic Basic.rack[5].node[3].app 	throughput
field count 106690
field mean 53345.5
field stddev 30798.89444715
field sum 5691431395
field sqrsum 4.0481444083216e+014
field min 1
field max 106690
statistic Basic.rack[5].node[3].app 	"End-to-End Delay"
field count 106690
field mean 6.662713042138e-005
field stddev 0.00014109052073284
field sum 7.1084485446571
field sqrsum 0.0025974238452319
field min 8.496e-007
field max 0.000569512801
statistic Basic.rack[5].node[3].app 	hops
field count 106690
field mean 4.7072265441935
field stddev 0.45503747113415
field sum 502214
field sqrsum 2386126
field min 4
field max 5
statistic Basic.rack[5].node[4].app 	throughput
field count 106487
field mean 53244
field stddev 30740.293394826
field sum 5669793828
field sqrsum 4.025081135061e+014
field min 1
field max 106487
statistic Basic.rack[5].node[4].app 	"End-to-End Delay"
field count 106487
field mean 6.6820725890654e-005
field stddev 0.00014131434519538
field sum 7.1155386379181
field sqrsum 0.0026019636332973
field min 8.496e-007
field max 0.000585401876
statistic Basic.rack[5].node[4].app 	hops
field count 106487
field mean 4.7062833960953
field stddev 0.45546581497643
field sum 501158
field sqrsum 2380682
field min 4
field max 5
statistic Basic.rack[5].node[5].app 	throughput
field count 106296
field mean 53148.5
field stddev 30685.156444118
field sum 5649472956
field sqrsum 4.0034613471164e+014
field min 1
field max 106296
statistic Basic.rack[5].node[5].app 	"End-to-End Delay"
field count 106296
field mean 6.6503298030905e-005
field stddev 0.00014089441346043
field sum 7.0690345674931
field sqrsum 0.0025802012160795
field min 8.496e-007
field max 0.000574663982
statistic Basic.rack[5].node[5].app 	hops
field count 106296
field mean 4.7079852487394
field stddev 0.4546911933295
field sum 500440
field sqrsum 2378040
field min 4
field max 5
statistic Basic.rack[5].node[6].app 	throughput
field count 106956
field mean 53478.5
field stddev 30875.682032953
field sum 5719846446
field sqrsum 4.0784983760107e+014
field min 1
field max 106956
statistic Basic.rack[5].node[6].app 	"End-to-End Delay"
field count 106956
field mean 6.5960887559997e-005
field stddev 0.0001404466843169
field sum 7.0549126898671
field sqrsum 0.0025750646769911
field min 8.496e-007
field max 0.000562087083
statistic Basic.rack[5].node[6].app 	hops
field count 106956
field mean 4.7048318934889
field stddev 0.45612042331305
field sum 503210
field sqrsum 2389770
field min 4
field max 5
statistic Basic.rack[5].node[7].app 	throughput
field count 106333
field mean 53167
field stddev 30695.837424098
field sum 5653406611
field sqrsum 4.0076434124718e+014
field min 1
field max 106333
statistic Basic.rack[5].node[7].app 	"End-to-End Delay"
field count 106333
field mean 6.587882820796e-005
field stddev 0.00014020993052739
field sum 7.0050934398371
field sqrsum 0.0025518494866375
field min 8.496e-007
field max 0.000597193036
statistic Basic.rack[5].node[7].app 	hops
field count 106333
field mean 4.7081714989702
field stddev 0.45460595090182
field sum 500634
field sqrsum 2379046
field min 4
field max 5
statistic Basic.rack[5].node[8].app 	throughput
field count 106125
field mean 53063
field stddev 30635.792996102
field sum 5631310875
field sqrsum 3.9841712150988e+014
field min 1
field max 106125
statistic Basic.rack[5].node[8].app 	"End-to-End Delay"
field count 106125
field mean 6.6358217615267e-005
field stddev 0.00014085437839667
field sum 7.0422658444202
field sqrsum 0.0025728076907742
field min 8.496e-007
field max 0.000566610653
statistic Basic.rack[5].node[8].app 	hops
field count 106125
field mean 4.7043109540636
field stddev 0.45635402533887
field sum 499245
field sqrsum 2370705
field min 4
field max 5
statistic Basic.rack[5].node[9].app 	throughput
field count 106514
field mean 53257.5
field stddev 30748.08762346
field sum 5672669355
field sqrsum 4.0281436000876e+014
field min 1
field max 106514
statistic Basic.rack[5].node[9].app 	"End-to-End Delay"
field count 106514
field mean 6.6461221191582e-005
field stddev 0.00014076072633946
field sum 7.0790505140002
field sqrsum 0.0025808864100832
field min 8.496e-007
field max 0.000555777444
statistic Basic.rack[5].node[9].app 	hops
field count 106514
field mean 4.7076440655688
field stddev 0.45484709998985
field sum 501430
field sqrsum 2382590
field min 4
field max 5
statistic Basic.rack[5].eps.queue[0] 	dropsum
field count 0
field mean nan
field stddev nan
field sum 0
field sqrsum 0
field min nan
field max nan
statistic Basic.rack[5].eps.queue[1] 	dropsum
field count 31760
field mean 15880.5
field stddev 9168.4666111624
field sum 504364680
field sqrsum 10679249612760
field min 1
field max 31760
statistic Basic.rack[5].eps.queue[2] 	dropsum
field count 0
field mean nan
field stddev nan
field sum 0
field sqrsum 0
field min nan
field max nan
statistic Basic.rack[5].eps.queue[3] 	dropsum
field count 0
field mean nan
field stddev nan
field sum 0
field sqrsum 0
field min nan
field max nan
statistic Basic.rack[6].node[0].app 	throughput
field count 93763
field mean 46882
field stddev 27067.190982196
field sum 4395796966
field sqrsum 2.7477687254769e+014
field min 1
field max 93763
statistic Basic.rack[6].node[0].app 	"End-to-End Delay"
field count 93763
field mean 0.00029269807429936
field stddev 0.00026434013187404
field sum 27.444249540531
field sqrsum 0.014584564873242
field min 8.496e-007
field max 0.000837103834
statistic Basic.rack[6].node[0].app 	hops
field count 93763
field mean 4.8682849311562
field stddev 0.72043757470908
field sum 456465
field sqrsum 2270867
field min 4
field max 6
statistic Basic.rack[6].node[1].app 	throughput
field count 93950
field mean 46975.5
field stddev 27121.173232366
field sum 4413348225
field sqrsum 2.7642418160858e+014
field min 1
field max 93950
statistic Basic.rack[6].node[1].app 	"End-to-End Delay"
field count 93950
field mean 0.0002925408400019
field stddev 0.00026505355439035
field sum 27.484211918179
field sqrsum 0.014640489867939
field min 8.496e-007
field max 0.00083703376
statistic Basic.rack[6].node[1].app 	hops
field count 93950
field mean 4.8665034592869
field stddev 0.72205584141129
field sum 457208
field sqrsum 2273986
field min 4
field max 6
statistic Basic.rack[6].node[2].app 	throughput
field count 93703
field mean 46852
field stddev 27049.87047412
field sum 4390172956
field sqrsum 2.7424971438836e+014
field min 1
field max 93703
statistic Basic.rack[6].node[2].app 	"End-to-End Delay"
field count 93703
field mean 0.00029332756521742
field stddev 0.00026485127587277
field sum 27.485672843568
field sqrsum 0.014635144569619
field min 8.496e-007
field max 0.000836894372
statistic Basic.rack[6].node[2].app 	hops
field count 93703
field mean 4.8700895382218
field stddev 0.72265190725028
field sum 456342
field sqrsum 2271360
field min 4
field max 6
statistic Basic.rack[6].node[3].app 	throughput
field count 93993
field mean 46997
field stddev 27133.586263154
field sum 4417389021
field sqrsum 2.7680390329691e+014
field min 1
field max 93993
statistic Basic.rack[6].node[3].app 	"End-to-End Delay"
field count 93993
field mean 0.00029339740090078
field stddev 0.0002638625566024
field sum 27.577301902867
field sqrsum 0.014635155899582
field min 8.496e-007
field max 0.0008369846
statistic Basic.rack[6].node[3].app 	hops
field count 93993
field mean 4.8707776110987
field stddev 0.72049493751115
field sum 457819
field sqrsum 2278727
field min 4
field max 6
statistic Basic.rack[6].node[4].app 	throughput
field count 93990
field mean 46995.5
field stddev 27132.72023775
field sum 4417107045
field sqrsum 2.7677739980872e+014
field min 1
field max 93990
statistic Basic.rack[6].node[4].app 	"End-to-End Delay"
field count 93990
field mean 0.00029450555632867
field stddev 0.00026505378354937
field sum 27.680577239332
field sqrsum 0.014755140779119
field min 8.496e-007
field max 0.000836942892
statistic Basic.rack[6].node[4].app 	hops
field count 93990
field mean 4.8716565592084
field stddev 0.72196928317576
field sum 457887
field sqrsum 2279659
field min 4
field max 6
statistic Basic.rack[6].node[5].app 	throughput
field count 93871
field mean 46936
field stddev 27098.367896733
field sum 4405929256
field sqrsum 2.7572745876974e+014
field min 1
field max 93871
statistic Basic.rack[6].node[5].app 	"End-to-End Delay"
field count 93871
field mean 0.00029447095445718
field stddev 0.00026471082949846
field sum 27.64228296585
field sqrsum 0.01471749149716
field min 8.496e-007
field max 0.000837131141
statistic Basic.rack[6].node[5].app 	hops
field count 93871
field mean 4.8728680849251
field stddev 0.72137913237118
field sum 457421
field sqrsum 2277801
field min 4
field max 6
statistic Basic.rack[6].node[6].app 	throughput
field count 94159
field mean 47080
field stddev 27181.506335497
field sum 4433005720
field sqrsum 2.7827306806156e+014
field min 1
field max 94159
statistic Basic.rack[6].node[6].app 	"End-to-End Delay"
field count 94159
field mean 0.00029410731677602
field stddev 0.00026462299087947
field sum 27.692850840314
field sqrsum 0.014738114822624
field min 8.496e-007
field max 0.000836981125
statistic Basic.rack[6].node[6].app 	hops
field count 94159
field mean 4.8717063690141
field stddev 0.72125790890054
field sum 458715
field sqrsum 2283707
field min 4
field max 6
statistic Basic.rack[6].node[7].app 	throughput
field count 92957
field mean 46479
field stddev 26834.518823709
field sum 4320548403
field sqrsum 2.6775158544792e+014
field min 1
field max 92957
statistic Basic.rack[6].node[7].app 	"End-to-End Delay"
field count 92957
field mean 0.00029336664785654
field stddev 0.00026372596763082
field sum 27.2704834848
field sqrsum 0.01446546896264
field min 8.496e-007
field max 0.000837086808
statistic Basic.rack[6].node[7].app 	hops
field count 92957
field mean 4.8697784997364
field stddev 0.71922471134801
field sum 452680
field sqrsum 2252536
field min 4
field max 6
statistic Basic.rack[6].node[8].app 	throughput
field count 93885
field mean 46943
field stddev 27102.409348617
field sum 4407243555
field sqrsum 2.7585084318864e+014
field min 1
field max 93885
statistic Basic.rack[6].node[8].app 	"End-to-End Delay"
field count 93885
field mean 0.00029370321225635
field stddev 0.00026463669279411
field sum 27.574326082688
field sqrsum 0.014673606809368
field min 8.496e-007
field max 0.000837163455
statistic Basic.rack[6].node[8].app 	hops
field count 93885
field mean 4.8685413005272
field stddev 0.7216259938043
field sum 457083
field sqrsum 2274217
field min 4
field max 6
statistic Basic.rack[6].node[9].app 	throughput
field count 93684
field mean 46842.5
field stddev 27044.385646563
field sum 4388392770
field sqrsum 2.7408292164071e+014
field min 1
field max 93684
statistic Basic.rack[6].node[9].app 	"End-to-End Delay"
field count 93684
field mean 0.00029279094498447
field stddev 0.00026482560132243
field sum 27.429826889925
field sqrsum 0.014601437218825
field min 8.496e-007
field max 0.000837138602
statistic Basic.rack[6].node[9].app 	hops
field count 93684
field mean 4.866156440801
field stddev 0.72165460422261
field sum 455881
field sqrsum 2267177
field min 4
field max 6
statistic Basic.rack[6].eps.queue[0] 	dropsum
field count 0
field mean nan
field stddev nan
field sum 0
field sqrsum 0
field min nan
field max nan
statistic Basic.rack[6].eps.queue[1] 	dropsum
field count 1255683
field mean 627842
field stddev 362484.60337125
field sum 788370526086
field sqrsum 6.5996257432861e+017
field min 1
field max 1255683
statistic Basic.rack[6].eps.queue[2] 	dropsum
field count 0
field mean nan
field stddev nan
field sum 0
field sqrsum 0
field min nan
field max nan
statistic Basic.rack[6].eps.queue[3] 	dropsum
field count 0
field mean nan
field stddev nan
field sum 0
field sqrsum 0
field min nan
field max nan
statistic Basic.rack[7].node[0].app 	throughput
field count 63439
field mean 31720
field stddev 18313.406200559
field sum 2012285080
field sqrsum 85105572888440
field min 1
field max 63439
statistic Basic.rack[7].node[0].app 	"End-to-End Delay"
field count 63439
field mean 0.00058193490477458
field stddev 0.00016416227673181
field sum 36.917368423994
field sqrsum 0.023193111996615
field min 4.5036154e-005
field max 0.000875820487
statistic Basic.rack[7].node[0].app 	hops
field count 63439
field mean 4.290200034679
field stddev 0.79310429908749
field sum 272166
field sqrsum 1207550
field min 3
field max 5
statistic Basic.rack[7].node[1].app 	throughput
field count 63471
field mean 31736
field stddev 18322.643804866
field sum 2014315656
field sqrsum 85234424106536
field min 1
field max 63471
statistic Basic.rack[7].node[1].app 	"End-to-End Delay"
field count 63471
field mean 0.00058290491846208
field stddev 0.00016427888850554
field sum 36.997558079707
field sqrsum 0.023278958577898
field min 8.992e-006
field max 0.000887081669
statistic Basic.rack[7].node[1].app 	hops
field count 63471
field mean 4.2858628349955
field stddev 0.79286348078497
field sum 272028
field sqrsum 1205774
field min 3
field max 5
statistic Basic.rack[7].node[2].app 	throughput
field count 63601
field mean 31801
field stddev 18360.171572365
field sum 2022575401
field sqrsum 85759219577801
field min 1
field max 63601
statistic Basic.rack[7].node[2].app 	"End-to-End Delay"
field count 63601
field mean 0.0005825146124379
field stddev 0.00016433298985527
field sum 37.048511865663
field sqrsum 0.023298838617711
field min 3.6162123e-005
field max 0.000873229501
statistic Basic.rack[7].node[2].app 	hops
field count 63601
field mean 4.2895709186962
field stddev 0.79354681463567
field sum 272821
field sqrsum 1210335
field min 3
field max 5
statistic Basic.rack[7].node[3].app 	throughput
field count 63074
field mean 31537.5
field stddev 18208.039776428
field sum 1989196275
field sqrsum 83645040298325
field min 1
field max 63074
statistic Basic.rack[7].node[3].app 	"End-to-End Delay"
field count 63074
field mean 0.00058366962473241
field stddev 0.00016421043533516
field sum 36.814377910372
field sqrsum 0.023188201815197
field min 5.9556581e-005
field max 0.000885274015
statistic Basic.rack[7].node[3].app 	hops
field count 63074
field mean 4.2863620509243
field stddev 0.79352300740278
field sum 270358
field sqrsum 1198568
field min 3
field max 5
statistic Basic.rack[7].node[4].app 	throughput
field count 63389
field mean 31695
field stddev 18298.972443829
field sum 2009114355
field sqrsum 84904502937515
field min 1
field max 63389
statistic Basic.rack[7].node[4].app 	"End-to-End Delay"
field count 63389
field mean 0.00058283274362818
field stddev 0.00016418936960862
field sum 36.945184785847
field sqrsum 0.023241686567259
field min 3.5319612e-005
field max 0.000883531307
statistic Basic.rack[7].node[4].app 	hops
field count 63389
field mean 4.2889302560381
field stddev 0.79226121396019
field sum 271871
field sqrsum 1205823
field min 3
field max 5
statistic Basic.rack[7].node[5].app 	throughput
field count 63371
field mean 31686
field stddev 18293.776291406
field sum 2007973506
field sqrsum 84832195356986
field min 1
field max 63371
statistic Basic.rack[7].node[5].app 	"End-to-End Delay"
field count 63371
field mean 0.00058341722634069
field stddev 0.00016466024057525
field sum 36.971733050436
field sqrsum 0.023288096431436
field min 6.9520599e-005
field max 0.000865077372
statistic Basic.rack[7].node[5].app 	hops
field count 63371
field mean 4.2876236764451
field stddev 0.7946531439638
field sum 271711
field sqrsum 1205011
field min 3
field max 5
statistic Basic.rack[7].node[6].app 	throughput
field count 63098
field mean 31549.5
field stddev 18214.967979659
field sum 1990710351
field sqrsum 83740558055049
field min 1
field max 63098
statistic Basic.rack[7].node[6].app 	"End-to-End Delay"
field count 63098
field mean 0.0005821892614428
field stddev 0.00016425081681344
field sum 36.734978018518
field sqrsum 0.023088961461713
field min 0.000107048136
field max 0.000888999164
statistic Basic.rack[7].node[6].app 	hops
field count 63098
field mean 4.2899616469619
field stddev 0.7941820327537
field sum 270688
field sqrsum 1201038
field min 3
field max 5
statistic Basic.rack[7].node[7].app 	throughput
field count 63006
field mean 31503.5
field stddev 18188.409867275
field sum 1984909521
field sqrsum 83374801156591
field min 1
field max 63006
statistic Basic.rack[7].node[7].app 	"End-to-End Delay"
field count 63006
field mean 0.000583026005421
field stddev 0.00016429300685403
field sum 36.734136497555
field sqrsum 0.023117599928091
field min 3.646808e-005
field max 0.000870346788
statistic Basic.rack[7].node[7].app 	hops
field count 63006
field mean 4.2873535853728
field stddev 0.79183660642966
field sum 270129
field sqrsum 1197643
field min 3
field max 5
statistic Basic.rack[7].node[8].app 	throughput
field count 64173
field mean 32087
field stddev 18525.293749358
field sum 2059119051
field sqrsum 88093917612899
field min 1
field max 64173
statistic Basic.rack[7].node[8].app 	"End-to-End Delay"
field count 64173
field mean 0.00058228374539871
field stddev 0.00016460128925493
field sum 37.366894793471
field sqrsum 0.023496784953943
field min 4.4201363e-005
field max 0.000879063575
statistic Basic.rack[7].node[8].app 	hops
field count 64173
field mean 4.2868028610163
field stddev 0.79484400690286
field sum 275097
field sqrsum 1219829
field min 3
field max 5
statistic Basic.rack[7].node[9].app 	throughput
field count 63165
field mean 31583
field stddev 18234.309213677
field sum 1994940195
field sqrsum 84007596591515
field min 1
field max 63165
statistic Basic.rack[7].node[9].app 	"End-to-End Delay"
field count 63165
field mean 0.00058309254865476
field stddev 0.00016463242397056
field sum 36.831040835778
field sqrsum 0.023187892105897
field min 0.000106123308
field max 0.000871518681
statistic Basic.rack[7].node[9].app 	hops
field count 63165
field mean 4.2890683131481
field stddev 0.79392065922485
field sum 270919
field sqrsum 1201803
field min 3
field max 5
statistic Basic.rack[7].eps.queue[0] 	dropsum
field count 0
field mean nan
field stddev nan
field sum 0
field sqrsum 0
field min nan
field max nan
statistic Basic.rack[7].eps.queue[1] 	dropsum
field count 0
field mean nan
field stddev nan
field sum 0
field sqrsum 0
field min nan
field max nan
statistic Basic.rack[7].eps.queue[2] 	dropsum
field count 0
field mean nan
field stddev nan
field sum 0
field sqrsum 0
field min nan
field max nan
statistic Basic.rack[7].eps.queue[3] 	dropsum
field count 0
field mean nan
field stddev nan
field sum 0
field sqrsum 0
field min nan
field max nan
statistic Basic.rack[8].node[0].app 	throughput
field count 107487
field mean 53744
field stddev 31028.968529424
field sum 5776781328
field sqrsum 4.139545219956e+014
field min 1
field max 107487
statistic Basic.rack[8].node[0].app 	"End-to-End Delay"
field count 107487
field mean 7.2933008480797e-005
field stddev 0.00013839533647027
field sum 7.8393502825754
field sqrsum 0.0026304556892222
field min 8.496e-007
field max 0.000581791433
statistic Basic.rack[8].node[0].app 	hops
field count 107487
field mean 4.872970684827
field stddev 0.83102184278725
field sum 523781
field sqrsum 2626599
field min 4
field max 6
statistic Basic.rack[8].node[1].app 	throughput
field count 107046
field mean 53523.5
field stddev 30901.662795067
field sum 5729476581
field sqrsum 4.0888027655201e+014
field min 1
field max 107046
statistic Basic.rack[8].node[1].app 	"End-to-End Delay"
field count 107046
field mean 7.2611499099027e-005
field stddev 0.00013809579251596
field sum 7.7727705325545
field sqrsum 0.002605788617113
field min 8.496e-007
field max 0.00054213172
statistic Basic.rack[8].node[1].app 	hops
field count 107046
field mean 4.8719148777161
field stddev 0.83157157194063
field sum 521519
field sqrsum 2614819
field min 4
field max 6
statistic Basic.rack[8].node[2].app 	throughput
field count 106707
field mean 53354
field stddev 30803.801924438
field sum 5693245278
field sqrsum 4.0500798033479e+014
field min 1
field max 106707
statistic Basic.rack[8].node[2].app 	"End-to-End Delay"
field count 106707
field mean 7.3085852425515e-005
field stddev 0.00013846884366755
field sum 7.7987720547694
field sqrsum 0.0026159202703484
field min 8.496e-007
field max 0.000619189482
statistic Basic.rack[8].node[2].app 	hops
field count 106707
field mean 4.8774119785956
field stddev 0.83253470426921
field sum 520454
field sqrsum 2612428
field min 4
field max 6
statistic Basic.rack[8].node[3].app 	throughput
field count 107165
field mean 53583
field stddev 30936.015136084
field sum 5742222195
field sqrsum 4.1024540842552e+014
field min 1
field max 107165
statistic Basic.rack[8].node[3].app 	"End-to-End Delay"
field count 107165
field mean 7.2751127601823e-005
field stddev 0.00013817428422906
field sum 7.7963745894493
field sqrsum 0.0026131843643481
field min 8.496e-007
field max 0.000595881472
statistic Basic.rack[8].node[3].app 	hops
field count 107165
field mean 4.872449027201
field stddev 0.83182060188773
field sum 522156
field sqrsum 2618328
field min 4
field max 6
statistic Basic.rack[8].node[4].app 	throughput
field count 106645
field mean 53323
field stddev 30785.904066093
field sum 5686631335
field sqrsum 4.043024280245e+014
field min 1
field max 106645
statistic Basic.rack[8].node[4].app 	"End-to-End Delay"
field count 106645
field mean 7.3713202957892e-005
field stddev 0.00013909233972499
field sum 7.8611445294444
field sqrsum 0.0026426773742753
field min 8.496e-007
field max 0.00059299764
statistic Basic.rack[8].node[4].app 	hops
field count 106645
field mean 4.8731961179615
field stddev 0.832713646247
field sum 519702
field sqrsum 2606558
field min 4
field max 6
statistic Basic.rack[8].node[5].app 	throughput
field count 107770
field mean 53885.5
field stddev 31110.663592515
field sum 5807240335
field sqrsum 4.1723279634874e+014
field min 1
field max 107770
statistic Basic.rack[8].node[5].app 	"End-to-End Delay"
field count 107770
field mean 7.3337315529269e-005
field stddev 0.00013871185317451
field sum 7.9035624945893
field sqrsum 0.0026532070373037
field min 8.496e-007
field max 0.000635691541
statistic Basic.rack[8].node[5].app 	hops
field count 107770
field mean 4.8759023847082
field stddev 0.83382721676539
field sum 525476
field sqrsum 2637098
field min 4
field max 6
statistic Basic.rack[8].node[6].app 	throughput
field count 107207
field mean 53604
field stddev 30948.139491737
field sum 5746724028
field sqrsum 4.1072794415454e+014
field min 1
field max 107207
statistic Basic.rack[8].node[6].app 	"End-to-End Delay"
field count 107207
field mean 7.2949140499019e-005
field stddev 0.00013840664756573
field sum 7.8206585054784
field sqrsum 0.0026241913442008
field min 8.496e-007
field max 0.000628639666
statistic Basic.rack[8].node[6].app 	hops
field count 107207
field mean 4.8727508464932
field stddev 0.83278162898265
field sum 522393
field sqrsum 2619841
field min 4
field max 6
statistic Basic.rack[8].node[7].app 	throughput
field count 107161
field mean 53581
field stddev 30934.860435545
field sum 5741793541
field sqrsum 4.1019947236258e+014
field min 1
field max 107161
statistic Basic.rack[8].node[7].app 	"End-to-End Delay"
field count 107161
field mean 7.2477770538548e-005
field stddev 0.00013778177440815
field sum 7.7667903686814
field sqrsum 0.002597225518359
field min 8.496e-007
field max 0.000625319688
statistic Basic.rack[8].node[7].app 	hops
field count 107161
field mean 4.8760463228227
field stddev 0.83271640082313
field sum 522522
field sqrsum 2622148
field min 4
field max 6
statistic Basic.rack[8].node[8].app 	throughput
field count 107112
field mean 53556.5
field stddev 30920.71535395
field sum 5736543828
field sqrsum 4.096370338511e+014
field min 1
field max 107112
statistic Basic.rack[8].node[8].app 	"End-to-End Delay"
field count 107112
field mean 7.3196650600421e-005
field stddev 0.00013868254777268
field sum 7.8402396391123
field sqrsum 0.0026339289768022
field min 8.496e-007
field max 0.000582062455
statistic Basic.rack[8].node[8].app 	hops
field count 107112
field mean 4.8762510269624
field stddev 0.83307600055103
field sum 522305
field sqrsum 2621227
field min 4
field max 6
statistic Basic.rack[8].node[9].app 	throughput
field count 107634
field mean 53817.5
field stddev 31071.40377421
field sum 5792592795
field sqrsum 4.1565521946228e+014
field min 1
field max 107634
statistic Basic.rack[8].node[9].app 	"End-to-End Delay"
field count 107634
field mean 7.3115510490499e-005
field stddev 0.00013867432082125
field sum 7.8697148561344
field sqrsum 0.0026452418645037
field min 8.496e-007
field max 0.000632934825
statistic Basic.rack[8].node[9].app 	hops
field count 107634
field mean 4.8710073025252
field stddev 0.83270834540317
field sum 524286
field sqrsum 2628434
field min 4
field max 6
statistic Basic.rack[8].eps.queue[0] 	dropsum
field count 0
field mean nan
field stddev nan
field sum 0
field sqrsum 0
field min nan
field max nan
statistic Basic.rack[8].eps.queue[1] 	dropsum
field count 0
field mean nan
field stddev nan
field sum 0
field sqrsum 0
field min nan
field max nan
statistic Basic.rack[8].eps.queue[2] 	dropsum
field count 0
field mean nan
field stddev nan
field sum 0
field sqrsum 0
field min nan
field max nan
statistic Basic.rack[8].eps.queue[3] 	dropsum
field count 0
field mean nan
field stddev nan
field sum 0
field sqrsum 0
field min nan
field max nan
statistic Basic.rack[9].node[0].app 	throughput
field count 106758
field mean 53379.5
field stddev 30818.524356302
field sum 5698688661
field sqrsum 4.0558896894358e+014
field min 1
field max 106758
statistic Basic.rack[9].node[0].app 	"End-to-End Delay"
field count 106758
field mean 6.8320987783568e-005
field stddev 0.00014328359054485
field sum 7.2938120137982
field sqrsum 0.0026900616491503
field min 8.496e-007
field max 0.00063345693
statistic Basic.rack[9].node[0].app 	hops
field count 106758
field mean 4.7092583225613
field stddev 0.45410669014088
field sum 502751
field sqrsum 2389599
field min 4
field max 5
statistic Basic.rack[9].node[1].app 	throughput
field count 106914
field mean 53457.5
field stddev 30863.5576773
field sum 5715355155
field sqrsum 4.0736955914616e+014
field min 1
field max 106914
statistic Basic.rack[9].node[1].app 	"End-to-End Delay"
field count 106914
field mean 6.8508154885647e-005
field stddev 0.00014360262156775
field sum 7.324480871444
field sqrsum 0.0027065158635346
field min 8.496e-007
field max 0.000640687736
statistic Basic.rack[9].node[1].app 	hops
field count 106914
field mean 4.7078680060609
field stddev 0.45474479244305
field sum 503337
field sqrsum 2391753
field min 4
field max 5
statistic Basic.rack[9].node[2].app 	throughput
field count 107057
field mean 53529
field stddev 30904.838221547
field sum 5730654153
field sqrsum 4.0900633798986e+014
field min 1
field max 107057
statistic Basic.rack[9].node[2].app 	"End-to-End Delay"
field count 107057
field mean 6.9202430740484e-005
field stddev 0.00014446291171054
field sum 7.408604627784
field sqrsum 0.0027469021584859
field min 8.496e-007
field max 0.000624948702
statistic Basic.rack[9].node[2].app 	hops
field count 107057
field mean 4.7090521871526
field stddev 0.45420161828117
field sum 504137
field sqrsum 2396093
field min 4
field max 5
statistic Basic.rack[9].node[3].app 	throughput
field count 107761
field mean 53881
field stddev 31108.065516304
field sum 5806270441
field sqrsum 4.1712827475188e+014
field min 1
field max 107761
statistic Basic.rack[9].node[3].app 	"End-to-End Delay"
field count 107761
field mean 6.7984893282068e-005
field stddev 0.00014309518904237
field sum 7.326120084969
field sqrsum 0.0027045843739216
field min 8.496e-007
field max 0.000629835563
statistic Basic.rack[9].node[3].app 	hops
field count 107761
field mean 4.7061088891157
field stddev 0.45554478548253
field sum 507135
field sqrsum 2408995
field min 4
field max 5
statistic Basic.rack[9].node[4].app 	throughput
field count 107188
field mean 53594.5
field stddev 30942.654664179
field sum 5744687266
field sqrsum 4.1050960734109e+014
field min 1
field max 107188
statistic Basic.rack[9].node[4].app 	"End-to-End Delay"
field count 107188
field mean 6.8672539789911e-005
field stddev 0.000143883521664
field sum 7.360872195001
field sqrsum 0.0027245252054679
field min 8.496e-007
field max 0.000582824564
statistic Basic.rack[9].node[4].app 	hops
field count 107188
field mean 4.7071967011233
field stddev 0.45505105086862
field sum 504555
field sqrsum 2397235
field min 4
field max 5
statistic Basic.rack[9].node[5].app 	throughput
field count 107514
field mean 53757.5
field stddev 31036.762758058
field sum 5779683855
field sqrsum 4.1426654655226e+014
field min 1
field max 107514
statistic Basic.rack[9].node[5].app 	"End-to-End Delay"
field count 107514
field mean 6.9041709330516e-005
field stddev 0.00014421429933566
field sum 7.4229503369611
field sqrsum 0.0027485231947572
field min 8.496e-007
field max 0.000646992024
statistic Basic.rack[9].node[5].app 	hops
field count 107514
field mean 4.7073683427275
field stddev 0.45497285168224
field sum 506108
field sqrsum 2404692
field min 4
field max 5
statistic Basic.rack[9].node[6].app 	throughput
field count 107682
field mean 53841.5
field stddev 31085.260180671
field sum 5797760403
field sqrsum 4.1621155639736e+014
field min 1
field max 107682
statistic Basic.rack[9].node[6].app 	"End-to-End Delay"
field count 107682
field mean 6.8934723783316e-005
field stddev 0.00014407708044228
field sum 7.423028926435
field sqrsum 0.0027469687329969
field min 8.496e-007
field max 0.00061168395
statistic Basic.rack[9].node[6].app 	hops
field count 107682
field mean 4.7066919262272
field stddev 0.45528054270201
field sum 506826
field sqrsum 2407794
field min 4
field max 5
statistic Basic.rack[9].node[7].app 	throughput
field count 107217
field mean 53609
field stddev 30951.026243083
field sum 5747796153
field sqrsum 4.1084288935618e+014
field min 1
field max 107217
statistic Basic.rack[9].node[7].app 	"End-to-End Delay"
field count 107217
field mean 6.8230680722638e-005
field stddev 0.00014326050961431
field sum 7.3154888950391
field sqrsum 0.0026995962558282
field min 8.496e-007
field max 0.000626181054
statistic Basic.rack[9].node[7].app 	hops
field count 107217
field mean 4.7094210806122
field stddev 0.45403164392168
field sum 504930
field sqrsum 2400030
field min 4
field max 5
statistic Basic.rack[9].node[8].app 	throughput
field count 107311
field mean 53656
field stddev 30978.161705735
field sum 5757879016
field sqrsum 4.1192442268366e+014
field min 1
field max 107311
statistic Basic.rack[9].node[8].app 	"End-to-End Delay"
field count 107311
field mean 6.8655569922571e-005
field stddev 0.00014372526137622
field sum 7.367497863961
field sqrsum 0.0027225171505585
field min 8.496e-007
field max 0.000664177921
statistic Basic.rack[9].node[8].app 	hops
field count 107311
field mean 4.7092283176934
field stddev 0.45412050474517
field sum 505352
field sqrsum 2401948
field min 4
field max 5
statistic Basic.rack[9].node[9].app 	throughput
field count 107150
field mean 53575.5
field stddev 30931.685009065
field sum 5740614825
field sqrsum 4.1007316587078e+014
field min 1
field max 107150
statistic Basic.rack[9].node[9].app 	"End-to-End Delay"
field count 107150
field mean 6.8447432569986e-005
field stddev 0.00014349913243282
field sum 7.3341423998739
field sqrsum 0.0027084155334844
field min 8.496e-007
field max 0.000590673071
statistic Basic.rack[9].node[9].app 	hops
field count 107150
field mean 4.7093887074195
field stddev 0.45404657604809
field sum 504611
field sqrsum 2398499
field min 4
field max 5
statistic Basic.rack[9].eps.queue[0] 	dropsum
field count 0
field mean nan
field stddev nan
field sum 0
field sqrsum 0
field min nan
field max nan
statistic Basic.rack[9].eps.queue[1] 	dropsum
field count 31384
field mean 15692.5
field stddev 9059.9247605412
field sum 492493420
field sqrsum 10304439826660
field min 1
field max 31384
statistic Basic.rack[9].eps.queue[2] 	dropsum
field count 0
field mean nan
field stddev nan
field sum 0
field sqrsum 0
field min nan
field max nan
statistic Basic.rack[9].eps.queue[3] 	dropsum
field count 0
field mean nan
field stddev nan
field sum 0
field sqrsum 0
field min nan
field max nan
statistic Basic.rack[10].node[0].app 	throughput
field count 93144
field mean 46572.5
field stddev 26888.501073879
field sum 4337948940
field sqrsum 2.6937072336122e+014
field min 1
field max 93144
statistic Basic.rack[10].node[0].app 	"End-to-End Delay"
field count 93144
field mean 0.0002890673687909
field stddev 0.0002620976535679
field sum 26.924890998659
field sqrsum 0.014181582547244
field min 8.496e-007
field max 0.000837076184
statistic Basic.rack[10].node[0].app 	hops
field count 93144
field mean 4.8599802456412
field stddev 0.71237368815718
field sum 452678
field sqrsum 2247274
field min 4
field max 6
statistic Basic.rack[10].node[1].app 	throughput
field count 93579
field mean 46790
field stddev 27014.07475743
field sum 4378561410
field sqrsum 2.7316239164473e+014
field min 1
field max 93579
statistic Basic.rack[10].node[1].app 	"End-to-End Delay"
field count 93579
field mean 0.00029039804009426
field stddev 0.00026290808632422
field sum 27.175158193981
field sqrsum 0.014359785973819
field min 8.496e-007
field max 0.000837022924
statistic Basic.rack[10].node[1].app 	hops
field count 93579
field mean 4.8639117750777
field stddev 0.71452533761583
field sum 455160
field sqrsum 2261634
field min 4
field max 6
statistic Basic.rack[10].node[2].app 	throughput
field count 93622
field mean 46811.5
field stddev 27026.487788217
field sum 4382586253
field sqrsum 2.73539120981e+014
field min 1
field max 93622
statistic Basic.rack[10].node[2].app 	"End-to-End Delay"
field count 93622
field mean 0.00028968319064959
field stddev 0.00026272323050938
field sum 27.120719674996
field sqrsum 0.014318465313072
field min 8.496e-007
field max 0.000836842157
statistic Basic.rack[10].node[2].app 	hops
field count 93622
field mean 4.860876717011
field stddev 0.71317154851382
field sum 455085
field sqrsum 2259729
field min 4
field max 6
statistic Basic.rack[10].node[3].app 	throughput
field count 93337
field mean 46669
field stddev 26944.215374857
field sum 4355944453
field sqrsum 2.7104864358792e+014
field min 1
field max 93337
statistic Basic.rack[10].node[3].app 	"End-to-End Delay"
field count 93337
field mean 0.0002900465613052
field stddev 0.00026318659176536
field sum 27.072075892543
field sqrsum 0.014317284227117
field min 8.496e-007
field max 0.000836801725
statistic Basic.rack[10].node[3].app 	hops
field count 93337
field mean 4.8619197102971
field stddev 0.71515525812477
field sum 453797
field sqrsum 2254061
field min 4
field max 6
statistic Basic.rack[10].node[4].app 	throughput
field count 93015
field mean 46508
field stddev 26851.261981516
field sum 4325941620
field sqrsum 2.6825308183674e+014
field min 1
field max 93015
statistic Basic.rack[10].node[4].app 	"End-to-End Delay"
field count 93015
field mean 0.0002904074215845
field stddev 0.00026287239383514
field sum 27.012246318682
field sqrsum 0.014272000507127
field min 8.496e-007
field max 0.000836912579
statistic Basic.rack[10].node[4].app 	hops
field count 93015
field mean 4.8648175025534
field stddev 0.71478293924561
field sum 452501
field sqrsum 2248857
field min 4
field max 6
statistic Basic.rack[10].node[5].app 	throughput
field count 93226
field mean 46613.5
field stddev 26912.172434916
field sum 4345590151
field sqrsum 2.700827734748e+014
field min 1
field max 93226
statistic Basic.rack[10].node[5].app 	"End-to-End Delay"
field count 93226
field mean 0.000289635714759
field stddev 0.00026249914837172
field sum 27.001579144123
field sqrsum 0.014244365149998
field min 8.496e-007
field max 0.000836707798
statistic Basic.rack[10].node[5].app 	hops
field count 93226
field mean 4.8607791817733
field stddev 0.71466313394116
field sum 453151
field sqrsum 2250281
field min 4
field max 6
statistic Basic.rack[10].node[6].app 	throughput
field count 93122
field mean 46561.5
field stddev 26882.150220918
field sum 4335900003
field sqrsum 2.6917989868624e+014
field min 1
field max 93122
statistic Basic.rack[10].node[6].app 	"End-to-End Delay"
field count 93122
field mean 0.00029010076446131
field stddev 0.00026321536772958
field sum 27.014763388167
field sqrsum 0.014288643344794
field min 8.496e-007
field max 0.000837147595
statistic Basic.rack[10].node[6].app 	hops
field count 93122
field mean 4.8611606279934
field stddev 0.71423483277424
field sum 452681
field sqrsum 2248059
field min 4
field max 6
statistic Basic.rack[10].node[7].app 	throughput
field count 93879
field mean 46940
field stddev 27100.677297809
field sum 4406680260
field sqrsum 2.7579795964578e+014
field min 1
field max 93879
statistic Basic.rack[10].node[7].app 	"End-to-End Delay"
field count 93879
field mean 0.00028963021787197
field stddev 0.0002629944196021
field sum 27.190195223603
field sqrsum 0.014368273992429
field min 8.496e-007
field max 0.000836945611
statistic Basic.rack[10].node[7].app 	hops
field count 93879
field mean 4.8612362722228
field stddev 0.7148550595877
field sum 456368
field sqrsum 2266486
field min 4
field max 6
statistic Basic.rack[10].node[8].app 	throughput
field count 93527
field mean 46764
field stddev 26999.063650431
field sum 4373696628
field sqrsum 2.7270727425018e+014
field min 1
field max 93527
statistic Basic.rack[10].node[8].app 	"End-to-End Delay"
field count 93527
field mean 0.00028935478923816
field stddev 0.00026280679777406
field sum 27.062485373077
field sqrsum 0.014290258615534
field min 8.496e-007
field max 0.000836890958
statistic Basic.rack[10].node[8].app 	hops
field count 93527
field mean 4.8609171683043
field stddev 0.71432660560043
field sum 454627
field sqrsum 2257627
field min 4
field max 6
statistic Basic.rack[10].node[9].app 	throughput
field count 93782
field mean 46891.5
field stddev 27072.675809753
field sum 4397578653
field sqrsum 2.7494394668332e+014
field min 1
field max 93782
statistic Basic.rack[10].node[9].app 	"End-to-End Delay"
field count 93782
field mean 0.00028925939722022
field stddev 0.00026303630270279
field sum 27.127324790107
field sqrsum 0.01433536249856
field min 8.496e-007
field max 0.000836964356
statistic Basic.rack[10].node[9].app 	hops
field count 93782
field mean 4.8594399778209
field stddev 0.71411915970176
field sum 455728
field sqrsum 2262408
field min 4
field max 6
statistic Basic.rack[10].eps.queue[0] 	dropsum
field count 0
field mean nan
field stddev nan
field sum 0
field sqrsum 0
field min nan
field max nan
statistic Basic.rack[10].eps.queue[1] 	dropsum
field count 1255926
field mean 627963.5
field stddev 362554.75142896
field sum 788675686701
field sqrsum 6.6034579655592e+017
field min 1
field max 1255926
statistic Basic.rack[10].eps.queue[2] 	dropsum
field count 0
field mean nan
field stddev nan
field sum 0
field sqrsum 0
field min nan
field max nan
statistic Basic.rack[10].eps.queue[3] 	dropsum
field count 0
field mean nan
field stddev nan
field sum 0
field sqrsum 0
field min nan
field max nan
statistic Basic.rack[11].node[0].app 	throughput
field count 63833
field mean 31917
field stddev 18427.144203593
field sum 2037357861
field sqrsum 86701122013429
field min 1
field max 63833
statistic Basic.rack[11].node[0].app 	"End-to-End Delay"
field count 63833
field mean 0.00058503835768018
field stddev 0.00016415041451766
field sum 37.344753485799
field sqrsum 0.023568089376585
field min 7.276673e-005
field max 0.000877329568
statistic Basic.rack[11].node[0].app 	hops
field count 63833
field mean 4.2979963341845
field stddev 0.78582417951282
field sum 274354
field sqrsum 1218590
field min 3
field max 5
statistic Basic.rack[11].node[1].app 	throughput
field count 63577
field mean 31789
field stddev 18353.243369134
field sum 2021049253
field sqrsum 85662172588405
field min 1
field max 63577
statistic Basic.rack[11].node[1].app 	"End-to-End Delay"
field count 63577
field mean 0.00058714254749476
field stddev 0.00016416088722904
field sum 37.328761742074
field sqrsum 0.023630600975515
field min 4.0309475e-005
field max 0.000878734535
statistic Basic.rack[11].node[1].app 	hops
field count 63577
field mean 4.3030655740283
field stddev 0.78220395722437
field sum 273576
field sqrsum 1216114
field min 3
field max 5
statistic Basic.rack[11].node[2].app 	throughput
field count 64106
field mean 32053.5
field stddev 18505.952515339
field sum 2054821671
field sqrsum 87818283634641
field min 1
field max 64106
statistic Basic.rack[11].node[2].app 	"End-to-End Delay"
field count 64106
field mean 0.00058634927366601
field stddev 0.0001641868239553
field sum 37.588506537634
[...]
field min 4
field max 5
statistic Basic.rack[13].node[2].app 	throughput
field count 106735
field mean 53368
field stddev 30811.884828207
field sum 5696233480
field sqrsum 4.0532688573636e+014
field min 1
field max 106735
statistic Basic.rack[13].node[2].app 	"End-to-End Delay"
field count 106735
field mean 6.7285010001734e-005
field stddev 0.00014199946367776
field sum 7.1816655425351
field sqrsum 0.0026353865566448
field min 8.496e-007
field max 0.000645984566
statistic Basic.rack[13].node[2].app 	hops
field count 106735
field mean 4.7071438609641
field stddev 0.45507511591185
field sum 502417
field sqrsum 2387053
field min 4
field max 5
statistic Basic.rack[13].node[3].app 	throughput
field count 106869
field mean 53435
field stddev 30850.567296243
field sum 5710545015
field sqrsum 4.068553936537e+014
field min 1
field max 106869
statistic Basic.rack[13].node[3].app 	"End-to-End Delay"
field count 106869
field mean 6.7220094860446e-005
field stddev 0.0001419627389139
field sum 7.183744317641
field sqrsum 0.0026366475818185
field min 8.496e-007
field max 0.000633216789
statistic Basic.rack[13].node[3].app 	hops
field count 106869
field mean 4.706210407134
field stddev 0.45549885776429
field sum 502948
field sqrsum 2389152
field min 4
field max 5
statistic Basic.rack[13].node[4].app 	throughput
field count 106629
field mean 53315
field stddev 30781.285263939
field sum 5684925135
field sqrsum 4.0412048312166e+014
field min 1
field max 106629
statistic Basic.rack[13].node[4].app 	"End-to-End Delay"
field count 106629
field mean 6.7064029142382e-005
field stddev 0.00014160266509845
field sum 7.150970363423
field sqrsum 0.0026176044753963
field min 8.496e-007
field max 0.000597069996
statistic Basic.rack[13].node[4].app 	hops
field count 106629
field mean 4.7098444138086
field stddev 0.45383615283318
field sum 502206
field sqrsum 2387274
field min 4
field max 5
statistic Basic.rack[13].node[5].app 	throughput
field count 106745
field mean 53373
field stddev 30814.771579553
field sum 5697300885
field sqrsum 4.0544082107984e+014
field min 1
field max 106745
statistic Basic.rack[13].node[5].app 	"End-to-End Delay"
field count 106745
field mean 6.7103899111069e-005
field stddev 0.00014175964066478
field sum 7.1630057106111
field sqrsum 0.0026257712310227
field min 8.496e-007
field max 0.000666316686
statistic Basic.rack[13].node[5].app 	hops
field count 106745
field mean 4.7069089887114
field stddev 0.45518195414251
field sum 502439
field sqrsum 2387051
field min 4
field max 5
statistic Basic.rack[13].node[6].app 	throughput
field count 106439
field mean 53220
field stddev 30726.436988366
field sum 5664683580
field sqrsum 4.0196405860894e+014
field min 1
field max 106439
statistic Basic.rack[13].node[6].app 	"End-to-End Delay"
field count 106439
field mean 6.7239876749659e-005
field stddev 0.00014190250854064
field sum 7.156945241357
field sqrsum 0.0026245019495318
field min 8.496e-007
field max 0.000606509305
statistic Basic.rack[13].node[6].app 	hops
field count 106439
field mean 4.7058127190222
field stddev 0.45567869766571
field sum 500882
field sqrsum 2379158
field min 4
field max 5
statistic Basic.rack[13].node[7].app 	throughput
field count 106681
field mean 53341
field stddev 30796.296370938
field sum 5690471221
field sqrsum 4.0471200370874e+014
field min 1
field max 106681
statistic Basic.rack[13].node[7].app 	"End-to-End Delay"
field count 106681
field mean 6.7264047981712e-005
field stddev 0.00014189420567762
field sum 7.175795902737
field sqrsum 0.0026305645306376
field min 8.496e-007
field max 0.00060565847
statistic Basic.rack[13].node[7].app 	hops
field count 106681
field mean 4.7077642691763
field stddev 0.45479220230793
field sum 502229
field sqrsum 2386441
field min 4
field max 5
statistic Basic.rack[13].node[8].app 	throughput
field count 107660
field mean 53830.5
field stddev 31078.90932771
field sum 5795391630
field sqrsum 4.1595650705441e+014
field min 1
field max 107660
statistic Basic.rack[13].node[8].app 	"End-to-End Delay"
field count 107660
field mean 6.7271391342458e-005
field stddev 0.0001420683879085
field sum 7.242437991929
field sqrsum 0.0026601364309104
field min 8.496e-007
field max 0.000670572389
statistic Basic.rack[13].node[8].app 	hops
field count 107660
field mean 4.7040590748653
field stddev 0.45646667932516
field sum 506439
field sqrsum 2404751
field min 4
field max 5
statistic Basic.rack[13].node[9].app 	throughput
field count 106711
field mean 53356
field stddev 30804.956624976
field sum 5693672116
field sqrsum 4.0505352800436e+014
field min 1
field max 106711
statistic Basic.rack[13].node[9].app 	"End-to-End Delay"
field count 106711
field mean 6.7537618430838e-005
field stddev 0.00014215133696812
field sum 7.2070068003731
field sqrsum 0.0026430333229528
field min 8.496e-007
field max 0.000614372348
statistic Basic.rack[13].node[9].app 	hops
field count 106711
field mean 4.7092989476249
field stddev 0.45408796813658
field sum 502534
field sqrsum 2388586
field min 4
field max 5
statistic Basic.rack[13].eps.queue[0] 	dropsum
field count 0
field mean nan
field stddev nan
field sum 0
field sqrsum 0
field min nan
field max nan
statistic Basic.rack[13].eps.queue[1] 	dropsum
field count 32588
field mean 16294.5
field stddev 9407.4896226358
field sum 531005166
field sqrsum 11536441234794
field min 1
field max 32588
statistic Basic.rack[13].eps.queue[2] 	dropsum
field count 0
field mean nan
field stddev nan
field sum 0
field sqrsum 0
field min nan
field max nan
statistic Basic.rack[13].eps.queue[3] 	dropsum
field count 0
field mean nan
field stddev nan
field sum 0
field sqrsum 0
field min nan
field max nan
statistic Basic.rack[14].node[0].app 	throughput
field count 93427
field mean 46714
field stddev 26970.196136971
field sum 4364348878
field sqrsum 2.7183346986623e+014
field min 1
field max 93427
statistic Basic.rack[14].node[0].app 	"End-to-End Delay"
field count 93427
field mean 0.0002928304104845
field stddev 0.00026494677243282
field sum 27.358266760336
field sqrsum 0.014569537995759
field min 8.496e-007
field max 0.00083688797
statistic Basic.rack[14].node[0].app 	hops
field count 93427
field mean 4.8651246427692
field stddev 0.72151028712188
field sum 454534
field sqrsum 2260000
field min 4
field max 6
statistic Basic.rack[14].node[1].app 	throughput
field count 93122
field mean 46561.5
field stddev 26882.150220918
field sum 4335900003
field sqrsum 2.6917989868624e+014
field min 1
field max 93122
statistic Basic.rack[14].node[1].app 	"End-to-End Delay"
field count 93122
field mean 0.00029286453500089
field stddev 0.00026341985151801
field sum 27.272131228353
field sqrsum 0.014448707913035
field min 8.496e-007
field max 0.000837047558
statistic Basic.rack[14].node[1].app 	hops
field count 93122
field mean 4.8679044694057
field stddev 0.71770067795929
field sum 453309
field sqrsum 2254631
field min 4
field max 6
statistic Basic.rack[14].node[2].app 	throughput
field count 92924
field mean 46462.5
field stddev 26824.992544267
field sum 4317481350
field sqrsum 2.6746653047205e+014
field min 1
field max 92924
statistic Basic.rack[14].node[2].app 	"End-to-End Delay"
field count 92924
field mean 0.00029254361453947
field stddev 0.00026382535384688
field sum 27.184322837466
field sqrsum 0.014420395579662
field min 8.496e-007
field max 0.000836993514
statistic Basic.rack[14].node[2].app 	hops
field count 92924
field mean 4.8668266540399
field stddev 0.71971368936956
field sum 452245
field sqrsum 2249131
field min 4
field max 6
statistic Basic.rack[14].node[3].app 	throughput
field count 93778
field mean 46889.5
field stddev 27071.521109215
field sum 4397203531
field sqrsum 2.7490876755459e+014
field min 1
field max 93778
statistic Basic.rack[14].node[3].app 	"End-to-End Delay"
field count 93778
field mean 0.00029268831315626
field stddev 0.00026305780838993
field sum 27.447724631168
field sqrsum 0.014522941345882
field min 8.496e-007
field max 0.000837077987
statistic Basic.rack[14].node[3].app 	hops
field count 93778
field mean 4.8669197466357
field stddev 0.71695117397971
field sum 456410
field sqrsum 2269514
field min 4
field max 6
statistic Basic.rack[14].node[4].app 	throughput
field count 93572
field mean 46786.5
field stddev 27012.054031487
field sum 4377906378
field sqrsum 2.7310109637027e+014
field min 1
field max 93572
statistic Basic.rack[14].node[4].app 	"End-to-End Delay"
field count 93572
field mean 0.00029401252952693
field stddev 0.00026437222308295
field sum 27.511340412894
field sqrsum 0.014628606028793
field min 8.496e-007
field max 0.000837041013
statistic Basic.rack[14].node[4].app 	hops
field count 93572
field mean 4.8697152994486
field stddev 0.72109379855697
field sum 455669
field sqrsum 2267633
field min 4
field max 6
statistic Basic.rack[14].node[5].app 	throughput
field count 93712
field mean 46856.5
field stddev 27052.468550331
field sum 4391016328
field sqrsum 2.743287450918e+014
field min 1
field max 93712
statistic Basic.rack[14].node[5].app 	"End-to-End Delay"
field count 93712
field mean 0.00029362727842486
field stddev 0.00026333607146292
field sum 27.516399515751
field sqrsum 0.014578037874804
field min 8.496e-007
field max 0.000837103008
statistic Basic.rack[14].node[5].app 	hops
field count 93712
field mean 4.8702620795629
field stddev 0.71861189215384
field sum 456402
field sqrsum 2271190
field min 4
field max 6
statistic Basic.rack[14].node[6].app 	throughput
field count 94060
field mean 47030.5
field stddev 27152.927497172
field sum 4423688830
field sqrsum 2.7739625546281e+014
field min 1
field max 94060
statistic Basic.rack[14].node[6].app 	"End-to-End Delay"
field count 94060
field mean 0.00029427701202773
field stddev 0.00026343356678265
field sum 27.679695751329
field sqrsum 0.014672933543076
field min 8.496e-007
field max 0.000836893581
statistic Basic.rack[14].node[6].app 	hops
field count 94060
field mean 4.8705826068467
field stddev 0.71795505967155
field sum 458127
field sqrsum 2279829
field min 4
field max 6
statistic Basic.rack[14].node[7].app 	throughput
field count 93983
field mean 46992
field stddev 27130.699511808
field sum 4416449136
field sqrsum 2.767155649155e+014
field min 1
field max 93983
statistic Basic.rack[14].node[7].app 	"End-to-End Delay"
field count 93983
field mean 0.00029332233150661
field stddev 0.00026398509272006
field sum 27.567312681986
field sqrsum 0.014635538185698
field min 8.496e-007
field max 0.000837001557
statistic Basic.rack[14].node[7].app 	hops
field count 93983
field mean 4.8679016417863
field stddev 0.71920693274203
field sum 457500
field sqrsum 2275678
field min 4
field max 6
statistic Basic.rack[14].node[8].app 	throughput
field count 93242
field mean 46621.5
field stddev 26916.79123707
field sum 4347081903
field sqrsum 2.7022185622698e+014
field min 1
field max 93242
statistic Basic.rack[14].node[8].app 	"End-to-End Delay"
field count 93242
field mean 0.00029210262103504
field stddev 0.00026341285093343
field sum 27.236232590549
field sqrsum 0.014425425725788
field min 8.496e-007
field max 0.00083687482
statistic Basic.rack[14].node[8].app 	hops
field count 93242
field mean 4.8650500847258
field stddev 0.7186938846108
field sum 453627
field sqrsum 2255079
field min 4
field max 6
statistic Basic.rack[14].node[9].app 	throughput
field count 93274
field mean 46637.5
field stddev 26926.028841377
field sum 4350066175
field sqrsum 2.7050016496002e+014
field min 1
field max 93274
statistic Basic.rack[14].node[9].app 	"End-to-End Delay"
field count 93274
field mean 0.00029190179317371
field stddev 0.00026325694331545
field sum 27.226847856485
field sqrsum 0.014411778056298
field min 8.496e-007
field max 0.000836674651
statistic Basic.rack[14].node[9].app 	hops
field count 93274
field mean 4.8648283551686
field stddev 0.7190540703908
field sum 453762
field sqrsum 2255700
field min 4
field max 6
statistic Basic.rack[14].eps.queue[0] 	dropsum
field count 0
field mean nan
field stddev nan
field sum 0
field sqrsum 0
field min nan
field max nan
statistic Basic.rack[14].eps.queue[1] 	dropsum
field count 1254657
field mean 627329
field stddev 362188.42268315
field sum 787082721153
field sqrsum 6.5834615947694e+017
field min 1
field max 1254657
statistic Basic.rack[14].eps.queue[2] 	dropsum
field count 0
field mean nan
field stddev nan
field sum 0
field sqrsum 0
field min nan
field max nan
statistic Basic.rack[14].eps.queue[3] 	dropsum
field count 0
field mean nan
field stddev nan
field sum 0
field sqrsum 0
field min nan
field max nan
statistic Basic.rack[15].node[0].app 	throughput
field count 63257
field mean 31629
field stddev 18260.867326061
field sum 2000755653
field sqrsum 84375200479765
field min 1
field max 63257
statistic Basic.rack[15].node[0].app 	"End-to-End Delay"
field count 63257
field mean 0.00058781293514423
field stddev 0.00016596996754633
field sum 37.183282838419
field sqrsum 0.023599266305283
field min 9.4416e-006
field max 0.000871623441
statistic Basic.rack[15].node[0].app 	hops
field count 63257
field mean 4.2990657160472
field stddev 0.78855994053241
field sum 271946
field sqrsum 1208448
field min 3
field max 5
statistic Basic.rack[15].node[1].app 	throughput
field count 64056
field mean 32028.5
field stddev 18491.518758609
field sum 2051617596
field sqrsum 87612961692116
field min 1
field max 64056
statistic Basic.rack[15].node[1].app 	"End-to-End Delay"
field count 64056
field mean 0.00058738283851055
field stddev 0.00016589958602499
field sum 37.625395103632
field sqrsum 0.023863476172216
field min 0.000203576695
field max 0.000866626338
statistic Basic.rack[15].node[1].app 	hops
field count 64056
field mean 4.2894810790558
field stddev 0.78978681235997
field sum 274767
field sqrsum 1218563
field min 3
field max 5
statistic Basic.rack[15].node[2].app 	throughput
field count 64084
field mean 32042.5
field stddev 18499.601662378
field sum 2053411570
field sqrsum 87727902505110
field min 1
field max 64084
statistic Basic.rack[15].node[2].app 	"End-to-End Delay"
field count 64084
field mean 0.00058758354094523
field stddev 0.00016570901803198
field sum 37.654703637934
field sqrsum 0.023884969867605
field min 7.6235875e-005
field max 0.00087523274
statistic Basic.rack[15].node[2].app 	hops
field count 64084
field mean 4.2963766306722
field stddev 0.78766292346923
field sum 275329
field sqrsum 1222675
field min 3
field max 5
statistic Basic.rack[15].node[3].app 	throughput
field count 63883
field mean 31942
field stddev 18441.577960323
field sum 2040550786
field sqrsum 86905017424954
field min 1
field max 63883
statistic Basic.rack[15].node[3].app 	"End-to-End Delay"
field count 63883
field mean 0.00058760518942484
field stddev 0.00016563580390316
field sum 37.537982316027
field sqrsum 0.023810129903748
field min 0.000174735073
field max 0.000868047732
statistic Basic.rack[15].node[3].app 	hops
field count 63883
field mean 4.2961507756367
field stddev 0.78975591339243
field sum 274451
field sqrsum 1218927
field min 3
field max 5
statistic Basic.rack[15].node[4].app 	throughput
field count 63825
field mean 31913
field stddev 18424.834802516
field sum 2036847225
field sqrsum 86668528372825
field min 1
field max 63825
statistic Basic.rack[15].node[4].app 	"End-to-End Delay"
field count 63825
field mean 0.00058876078629283
field stddev 0.00016570056796912
field sum 37.57765718514
field sqrsum 0.023876646022417
field min 1.5260272e-005
field max 0.000865138237
statistic Basic.rack[15].node[4].app 	hops
field count 63825
field mean 4.2924872698786
field stddev 0.78699244055862
field sum 273968
field sqrsum 1215534
field min 3
field max 5
statistic Basic.rack[15].node[5].app 	throughput
field count 63401
field mean 31701
field stddev 18302.436545444
field sum 2009875101
field sqrsum 84952730810701
field min 1
field max 63401
statistic Basic.rack[15].node[5].app 	"End-to-End Delay"
field count 63401
field mean 0.00058675378568745
field stddev 0.00016536404559934
field sum 37.20077676637
field sqrsum 0.023561386562562
field min 5.3853168e-005
field max 0.000873977739
statistic Basic.rack[15].node[5].app 	hops
field count 63401
field mean 4.2953581173799
field stddev 0.78933270437821
field sum 272330
field sqrsum 1209256
field min 3
field max 5
statistic Basic.rack[15].node[6].app 	throughput
field count 63901
field mean 31951
field stddev 18446.774112746
field sum 2041700851
field sqrsum 86978497953451
field min 1
field max 63901
statistic Basic.rack[15].node[6].app 	"End-to-End Delay"
field count 63901
field mean 0.00058713657486472
field stddev 0.00016550240253974
field sum 37.51861427043
field sqrsum 0.023778838467658
field min 8.2780412e-005
field max 0.000867159318
statistic Basic.rack[15].node[6].app 	hops
field count 63901
field mean 4.2940642556455
field stddev 0.78783034973991
field sum 274395
field sqrsum 1217931
field min 3
field max 5
statistic Basic.rack[15].node[7].app 	throughput
field count 63837
field mean 31919
field stddev 18428.298904131
field sum 2037613203
field sqrsum 86717421897675
field min 1
field max 63837
statistic Basic.rack[15].node[7].app 	"End-to-End Delay"
field count 63837
field mean 0.0005869611548808
field stddev 0.00016599347919376
field sum 37.469839244126
field sqrsum 0.023752266735598
field min 6.8140121e-005
field max 0.000873205218
statistic Basic.rack[15].node[7].app 	hops
field count 63837
field mean 4.2913044159343
field stddev 0.79046441903754
field sum 273944
field sqrsum 1215464
field min 3
field max 5
statistic Basic.rack[15].node[8].app 	throughput
field count 63811
field mean 31906
field stddev 18420.793350631
field sum 2035953766
field sqrsum 86611509159406
field min 1
field max 63811
statistic Basic.rack[15].node[8].app 	"End-to-End Delay"
field count 63811
field mean 0.00058630481608881
field stddev 0.00016561699824532
field sum 37.412696619443
field sqrsum 0.023685488069627
field min 0.00032775963
field max 0.000873165144
statistic Basic.rack[15].node[8].app 	hops
field count 63811
field mean 4.2955603265895
field stddev 0.78993960519435
field sum 274104
field sqrsum 1217248
field min 3
field max 5
statistic Basic.rack[15].node[9].app 	throughput
field count 64280
field mean 32140.5
field stddev 18556.181988761
field sum 2065991340
field sqrsum 88535304220580
field min 1
field max 64280
statistic Basic.rack[15].node[9].app 	"End-to-End Delay"
field count 64280
field mean 0.00058784641498975
field stddev 0.00016568250733623
field sum 37.786767555541
field sqrsum 0.023977318952171
field min 8.0631545e-005
field max 0.000873208367
statistic Basic.rack[15].node[9].app 	hops
field count 64280
field mean 4.2906191661481
field stddev 0.78701505697471
field sum 275801
field sqrsum 1223171
field min 3
field max 5
statistic Basic.rack[15].eps.queue[0] 	dropsum
field count 0
field mean nan
field stddev nan
field sum 0
field sqrsum 0
field min nan
field max nan
statistic Basic.rack[15].eps.queue[1] 	dropsum
field count 0
field mean nan
field stddev nan
field sum 0
field sqrsum 0
field min nan
field max nan
statistic Basic.rack[15].eps.queue[2] 	dropsum
field count 0
field mean nan
field stddev nan
field sum 0
field sqrsum 0
field min nan
field max nan
statistic Basic.rack[15].eps.queue[3] 	dropsum
field count 0
field mean nan
field stddev nan
field sum 0
field sqrsum 0
field min nan
field max nan
