version 2
run Basic-73-20180510-20:23:56-1968
attr configname Basic
attr datetime 20180510-20:23:56
attr experiment Basic
attr inifile omnetpp.ini
attr iterationvars "$0=exponential(0.05 ms), $1=6, $2=3"
attr iterationvarsf exponential(0.05_ms),6,3-
attr measurement "$0=exponential(0.05 ms), $1=6, $2=3"
attr network Networks.Basic
attr processid 1968
attr repetition 0
attr replication #0
attr resultdir results
attr runnumber 73
attr seedset 73
param **.frameCapacity 50
param **.packetLength "1024 bytes"
param **.pattern 6
param **.sendIaTime "exponential(0.05 ms)"
param **.tp 3

statistic Basic.rack[0].node[0].app 	throughput
field count 162873
field mean 81437
field stddev 47017.529534207
field sum 13263888501
field sqrsum 1.4402239625117e+015
field min 1
field max 162873
statistic Basic.rack[0].node[0].app 	"End-to-End Delay"
field count 162873
field mean 9.319605341271e-005
field stddev 0.00016385551638795
field sum 15.179120807488
field sqrsum 0.0057875242597346
field min 8.496e-007
field max 0.000606029269
statistic Basic.rack[0].node[0].app 	hops
field count 162873
field mean 5.2890964125423
field stddev 0.99860408464919
field sum 861451
field sqrsum 4718715
field min 4
field max 7
statistic Basic.rack[0].node[1].app 	throughput
field count 162703
field mean 81352
field stddev 46968.454761325
field sum 13236214456
field sqrsum 1.4357189458279e+015
field min 1
field max 162703
statistic Basic.rack[0].node[1].app 	"End-to-End Delay"
field count 162703
field mean 9.3217352201273e-005
field stddev 0.00016372640918207
field sum 15.166742855204
field sqrsum 0.0057752482634106
field min 8.496e-007
field max 0.000597491558
statistic Basic.rack[0].node[1].app 	hops
field count 162703
field mean 5.2922687350571
field stddev 0.99903687083305
field sum 861068
field sqrsum 4719392
field min 4
field max 7
statistic Basic.rack[0].node[2].app 	throughput
field count 162952
field mean 81476.5
field stddev 47040.33486984
field sum 13276758628
field sqrsum 1.4423206735528e+015
field min 1
field max 162952
statistic Basic.rack[0].node[2].app 	"End-to-End Delay"
field count 162952
field mean 9.2835951444309e-005
field stddev 0.00016354535397427
field sum 15.127803959753
field sqrsum 0.0057628679642799
field min 8.496e-007
field max 0.000623752649
statistic Basic.rack[0].node[2].app 	hops
field count 162952
field mean 5.2912575482351
field stddev 1.0008545713171
field sum 862221
field sqrsum 4725463
field min 4
field max 7
statistic Basic.rack[0].node[3].app 	throughput
field count 163120
field mean 81560.5
field stddev 47088.832292452
field sum 13304148760
field sqrsum 1.4467862652037e+015
field min 1
field max 163120
statistic Basic.rack[0].node[3].app 	"End-to-End Delay"
field count 163120
field mean 9.2587448281658e-005
field stddev 0.00016333714842235
field sum 15.102864563704
field sqrsum 0.0057501914164826
field min 8.496e-007
field max 0.000624552196
statistic Basic.rack[0].node[3].app 	hops
field count 163120
field mean 5.2889161353605
field stddev 0.99947558381609
field sum 862728
field sqrsum 4725844
field min 4
field max 7
statistic Basic.rack[0].node[4].app 	throughput
field count 162748
field mean 81374.5
field stddev 46981.445142382
field sum 13243537126
field sqrsum 1.4369105346339e+015
field min 1
field max 162748
statistic Basic.rack[0].node[4].app 	"End-to-End Delay"
field count 162748
field mean 9.3152120286042e-005
field stddev 0.00016384462173909
field sum 15.160321272313
field sqrsum 0.0057811690624057
field min 8.496e-007
field max 0.000600172578
statistic Basic.rack[0].node[4].app 	hops
field count 162748
field mean 5.2920834664635
field stddev 1.0013463392204
field sum 861276
field sqrsum 4721130
field min 4
field max 7
statistic Basic.rack[0].node[5].app 	throughput
field count 162665
field mean 81333
field stddev 46957.485106211
field sum 13230032445
field sqrsum 1.4347132284548e+015
field min 1
field max 162665
statistic Basic.rack[0].node[5].app 	"End-to-End Delay"
field count 162665
field mean 9.221328289473e-005
field stddev 0.00016305770202764
field sum 14.999873662071
field sqrsum 0.0057080678008747
field min 8.496e-007
field max 0.000622717138
statistic Basic.rack[0].node[5].app 	hops
field count 162665
field mean 5.2926136538284
field stddev 0.99956396122621
field sum 860923
field sqrsum 4719055
field min 4
field max 7
statistic Basic.rack[0].node[6].app 	throughput
field count 162197
field mean 81099
field stddev 46822.38514322
field sum 13154014503
field sqrsum 1.4223655115669e+015
field min 1
field max 162197
statistic Basic.rack[0].node[6].app 	"End-to-End Delay"
field count 162197
field mean 9.2887795676634e-005
field stddev 0.00016356417438335
field sum 15.066121795363
field sqrsum 0.0057387272187953
field min 8.496e-007
field max 0.000610140775
statistic Basic.rack[0].node[6].app 	hops
field count 162197
field mean 5.2911274561182
field stddev 0.99763265593526
field sum 858205
field sqrsum 4702301
field min 4
field max 7
statistic Basic.rack[0].node[7].app 	throughput
field count 162787
field mean 81394
field stddev 46992.703472631
field sum 13249885078
field sqrsum 1.43794377809e+015
field min 1
field max 162787
statistic Basic.rack[0].node[7].app 	"End-to-End Delay"
field count 162787
field mean 9.321149666651e-005
field stddev 0.00016387819340547
field sum 15.173619907851
field sqrsum 0.0057861467747689
field min 8.496e-007
field max 0.000639363697
statistic Basic.rack[0].node[7].app 	hops
field count 162787
field mean 5.295293850246
field stddev 0.99903884312317
field sum 862005
field sqrsum 4727043
field min 4
field max 7
statistic Basic.rack[0].node[8].app 	throughput
field count 162807
field mean 81404
field stddev 46998.476975323
field sum 13253141028
field sqrsum 1.4384738386107e+015
field min 1
field max 162807
statistic Basic.rack[0].node[8].app 	"End-to-End Delay"
field count 162807
field mean 9.3197471653972e-005
field stddev 0.00016385313087843
field sum 15.173200767568
field sqrsum 0.0057850947711088
field min 8.496e-007
field max 0.000590079331
statistic Basic.rack[0].node[8].app 	hops
field count 162807
field mean 5.2954234154551
field stddev 0.99811875423043
field sum 862132
field sqrsum 4727548
field min 4
field max 7
statistic Basic.rack[0].node[9].app 	throughput
field count 163223
field mean 81612
field stddev 47118.565831315
field sum 13320955476
field sqrsum 1.4495286507579e+015
field min 1
field max 163223
statistic Basic.rack[0].node[9].app 	"End-to-End Delay"
field count 163223
field mean 9.2547976304707e-005
field stddev 0.00016322310073411
field sum 15.105958336383
field sqrsum 0.0057465505894327
field min 8.496e-007
field max 0.000621603893
statistic Basic.rack[0].node[9].app 	hops
field count 163223
field mean 5.2897324519216
field stddev 0.9990660580258
field sum 863406
field sqrsum 4730104
field min 4
field max 7
statistic Basic.rack[0].eps.queue[0] 	dropsum
field count 0
field mean nan
field stddev nan
field sum 0
field sqrsum 0
field min nan
field max nan
statistic Basic.rack[0].eps.queue[1] 	dropsum
field count 0
field mean nan
field stddev nan
field sum 0
field sqrsum 0
field min nan
field max nan
statistic Basic.rack[0].eps.queue[2] 	dropsum
field count 0
field mean nan
field stddev nan
field sum 0
field sqrsum 0
field min nan
field max nan
statistic Basic.rack[0].eps.queue[3] 	dropsum
field count 0
field mean nan
field stddev nan
field sum 0
field sqrsum 0
field min nan
field max nan
statistic Basic.rack[1].node[0].app 	throughput
field count 162529
field mean 81265
field stddev 46918.225287906
field sum 13207919185
field sqrsum 1.4311176674523e+015
field min 1
field max 162529
statistic Basic.rack[1].node[0].app 	"End-to-End Delay"
field count 162529
field mean 9.2704670997542e-005
field stddev 0.00016348019286978
field sum 15.067197472559
field sqrsum 0.005740486093576
field min 8.496e-007
field max 0.000610028648
statistic Basic.rack[1].node[0].app 	hops
field count 162529
field mean 5.2970485267245
field stddev 1.001118548285
field sum 860924
field sqrsum 4723248
field min 4
field max 7
statistic Basic.rack[1].node[1].app 	throughput
field count 163128
field mean 81564.5
field stddev 47091.141693529
field sum 13305453756
field sqrsum 1.4469991420238e+015
field min 1
field max 163128
statistic Basic.rack[1].node[1].app 	"End-to-End Delay"
field count 163128
field mean 9.3819520725517e-005
field stddev 0.00016441652586813
field sum 15.304590776912
field sqrsum 0.0058456479549281
field min 8.496e-007
field max 0.000602863211
statistic Basic.rack[1].node[1].app 	hops
field count 163128
field mean 5.297165416115
field stddev 1.0042929830933
field sum 864116
field sqrsum 4741896
field min 4
field max 7
statistic Basic.rack[1].node[2].app 	throughput
field count 163388
field mean 81694.5
field stddev 47166.197228524
field sum 13347900966
field sqrsum 1.4539290113222e+015
field min 1
field max 163388
statistic Basic.rack[1].node[2].app 	"End-to-End Delay"
field count 163388
field mean 9.3483451398926e-005
field stddev 0.00016412342316103
field sum 15.274074157168
field sqrsum 0.0058289467727782
field min 8.496e-007
field max 0.000610419078
statistic Basic.rack[1].node[2].app 	hops
field count 163388
field mean 5.2958479202879
field stddev 1.0024583223405
field sum 865278
field sqrsum 4746572
field min 4
field max 7
statistic Basic.rack[1].node[3].app 	throughput
field count 162875
field mean 81438
field stddev 47018.106884476
field sum 13264214250
field sqrsum 1.4402770187172e+015
field min 1
field max 162875
statistic Basic.rack[1].node[3].app 	"End-to-End Delay"
field count 162875
field mean 9.3531147942138e-005
field stddev 0.00016423090694913
field sum 15.233885721076
field sqrsum 0.0058178462734367
field min 8.496e-007
field max 0.000586518351
statistic Basic.rack[1].node[3].app 	hops
field count 162875
field mean 5.2951281657713
field stddev 1.00357455177
field sum 862444
field sqrsum 4730792
field min 4
field max 7
statistic Basic.rack[1].node[4].app 	throughput
field count 162868
field mean 81434.5
field stddev 47016.086158534
field sum 13263074146
field sqrsum 1.4400913276985e+015
field min 1
field max 162868
statistic Basic.rack[1].node[4].app 	"End-to-End Delay"
field count 162868
field mean 9.2679094724854e-005
field stddev 0.00016357402055048
field sum 15.094458799647
field sqrsum 0.0057566851801514
field min 8.496e-007
field max 0.000618999303
statistic Basic.rack[1].node[4].app 	hops
field count 162868
field mean 5.2969275732495
field stddev 1.0040307015234
field sum 862700
field sqrsum 4733842
field min 4
field max 7
statistic Basic.rack[1].node[5].app 	throughput
field count 163027
field mean 81514
field stddev 47061.985504935
field sum 13288982878
field sqrsum 1.4443131040954e+015
field min 1
field max 163027
statistic Basic.rack[1].node[5].app 	"End-to-End Delay"
field count 163027
field mean 9.2953714122728e-005
field stddev 0.00016366093521218
field sum 15.153965152286
field sqrsum 0.0057752527315035
field min 8.496e-007
field max 0.000580685796
statistic Basic.rack[1].node[5].app 	hops
field count 163027
field mean 5.2957853607071
field stddev 1.002236204323
field sum 863356
field sqrsum 4735904
field min 4
field max 7
statistic Basic.rack[1].node[6].app 	throughput
field count 162359
field mean 81180
field stddev 46869.150515024
field sum 13180303620
field sqrsum 1.4266316703943e+015
field min 1
field max 162359
statistic Basic.rack[1].node[6].app 	"End-to-End Delay"
field count 162359
field mean 9.3275293646583e-005
field stddev 0.00016393519094954
field sum 15.144083401166
field sqrsum 0.0057758989723471
field min 8.496e-007
field max 0.000622346862
statistic Basic.rack[1].node[6].app 	hops
field count 162359
field mean 5.2967066808739
field stddev 1.0019129176054
field sum 859968
field sqrsum 4717978
field min 4
field max 7
statistic Basic.rack[1].node[7].app 	throughput
field count 162769
field mean 81385
field stddev 46987.507320209
field sum 13246955065
field sqrsum 1.4374668349683e+015
field min 1
field max 162769
statistic Basic.rack[1].node[7].app 	"End-to-End Delay"
field count 162769
field mean 9.3116443225423e-005
field stddev 0.00016384396287459
field sum 15.156470347359
field sqrsum 0.0057807982065334
field min 8.496e-007
field max 0.000608537734
statistic Basic.rack[1].node[7].app 	hops
field count 162769
field mean 5.2982877574968
field stddev 1.0057998426582
field sum 862397
field sqrsum 4733889
field min 4
field max 7
statistic Basic.rack[1].node[8].app 	throughput
field count 162426
field mean 81213.5
field stddev 46888.491749042
field sum 13191183951
field sqrsum 1.4283985600114e+015
field min 1
field max 162426
statistic Basic.rack[1].node[8].app 	"End-to-End Delay"
field count 162426
field mean 9.2807284169611e-005
field stddev 0.00016356225143846
field sum 15.074315938533
field sqrsum 0.005744299017751
field min 8.496e-007
field max 0.000590702213
statistic Basic.rack[1].node[8].app 	hops
field count 162426
field mean 5.2906000270893
field stddev 1.0018925852998
field sum 859331
field sqrsum 4709417
field min 4
field max 7
statistic Basic.rack[1].node[9].app 	throughput
field count 163144
field mean 81572.5
field stddev 47095.760495682
field sum 13308063940
field sqrsum 1.4474249583062e+015
field min 1
field max 163144
statistic Basic.rack[1].node[9].app 	"End-to-End Delay"
field count 163144
field mean 9.3144362320431e-005
field stddev 0.00016376614327464
field sum 15.195943846404
field sqrsum 0.0057908056647722
field min 8.496e-007
field max 0.000601914591
statistic Basic.rack[1].node[9].app 	hops
field count 163144
field mean 5.2971669200216
field stddev 1.0030694345156
field sum 864201
field sqrsum 4741963
field min 4
field max 7
statistic Basic.rack[1].eps.queue[0] 	dropsum
field count 0
field mean nan
field stddev nan
field sum 0
field sqrsum 0
field min nan
field max nan
statistic Basic.rack[1].eps.queue[1] 	dropsum
field count 0
field mean nan
field stddev nan
field sum 0
field sqrsum 0
field min nan
field max nan
statistic Basic.rack[1].eps.queue[2] 	dropsum
field count 0
field mean nan
field stddev nan
field sum 0
field sqrsum 0
field min nan
field max nan
statistic Basic.rack[1].eps.queue[3] 	dropsum
field count 0
field mean nan
field stddev nan
field sum 0
field sqrsum 0
field min nan
field max nan
statistic Basic.rack[2].node[0].app 	throughput
field count 108664
field mean 54332.5
field stddev 31368.739162846
field sum 5903986780
field sqrsum 4.2770251430354e+014
field min 1
field max 108664
statistic Basic.rack[2].node[0].app 	"End-to-End Delay"
field count 108664
field mean 0.00033092963092048
field stddev 0.0002348396190652
field sum 35.960137414343
field sqrsum 0.017893001059859
field min 8.496e-007
field max 0.000990313895
statistic Basic.rack[2].node[0].app 	hops
field count 108664
field mean 4.8994055068836
field stddev 0.92713964152682
field sum 532389
field sqrsum 2701795
field min 3
field max 7
statistic Basic.rack[2].node[1].app 	throughput
field count 108012
field mean 54006.5
field stddev 31180.522975088
field sum 5833350078
field sqrsum 4.2004981686665e+014
field min 1
field max 108012
statistic Basic.rack[2].node[1].app 	"End-to-End Delay"
field count 108012
field mean 0.00033255272594941
field stddev 0.00023549226014232
field sum 35.919685035248
field sqrsum 0.017935112491756
field min 8.496e-007
field max 0.001036512049
statistic Basic.rack[2].node[1].app 	hops
field count 108012
field mean 4.9031311335778
field stddev 0.92906746466317
field sum 529597
field sqrsum 2689915
field min 3
field max 7
statistic Basic.rack[2].node[2].app 	throughput
field count 108548
field mean 54274.5
field stddev 31335.252847233
field sum 5891388426
field sqrsum 4.2633425103977e+014
field min 1
field max 108548
statistic Basic.rack[2].node[2].app 	"End-to-End Delay"
field count 108548
field mean 0.00033229465843557
field stddev 0.00023500187169436
field sum 36.069920583864
field sqrsum 0.017980445503993
field min 8.496e-007
field max 0.000992155038
statistic Basic.rack[2].node[2].app 	hops
field count 108548
field mean 4.9060323543501
field stddev 0.92940163103429
field sum 532540
field sqrsum 2706420
field min 3
field max 7
statistic Basic.rack[2].node[3].app 	throughput
field count 108901
field mean 54451
field stddev 31437.155169746
field sum 5929768351
field sqrsum 4.3050711205095e+014
field min 1
field max 108901
statistic Basic.rack[2].node[3].app 	"End-to-End Delay"
field count 108901
field mean 0.00033210141723468
field stddev 0.00023533346966426
field sum 36.166176438274
field sqrsum 0.018041921038836
field min 8.496e-007
field max 0.001007156264
statistic Basic.rack[2].node[3].app 	hops
field count 108901
field mean 4.9039953719433
field stddev 0.92590149956805
field sum 534050
field sqrsum 2712338
field min 3
field max 7
statistic Basic.rack[2].node[4].app 	throughput
field count 109241
field mean 54621
field stddev 31535.304715509
field sum 5966852661
field sqrsum 4.3455195664442e+014
field min 1
field max 109241
statistic Basic.rack[2].node[4].app 	"End-to-End Delay"
field count 109241
field mean 0.00033148767886305
field stddev 0.00023485704065476
field sum 36.212045526678
field sqrsum 0.018029288218029
field min 8.496e-007
field max 0.00102174065
statistic Basic.rack[2].node[4].app 	hops
field count 109241
field mean 4.9020514275776
field stddev 0.92554154620135
field sum 535505
field sqrsum 2718651
field min 3
field max 7
statistic Basic.rack[2].node[5].app 	throughput
field count 108617
field mean 54309
field stddev 31355.17143152
field sum 5898880653
field sqrsum 4.2714777955148e+014
field min 1
field max 108617
statistic Basic.rack[2].node[5].app 	"End-to-End Delay"
field count 108617
field mean 0.00033171049127451
field stddev 0.00023483910405319
field sum 36.029398430764
field sqrsum 0.017941437204737
field min 8.496e-007
field max 0.001007247034
statistic Basic.rack[2].node[5].app 	hops
field count 108617
field mean 4.903007816456
field stddev 0.92900557997719
field sum 532550
field sqrsum 2704838
field min 3
field max 7
statistic Basic.rack[2].node[6].app 	throughput
field count 109011
field mean 54506
field stddev 31468.909434551
field sum 5941753566
field sqrsum 4.3181297924001e+014
field min 1
field max 109011
statistic Basic.rack[2].node[6].app 	"End-to-End Delay"
field count 109011
field mean 0.00033178958789283
field stddev 0.00023551145116142
field sum 36.168714765786
field sqrsum 0.018046712778659
field min 8.496e-007
field max 0.001008139567
statistic Basic.rack[2].node[6].app 	hops
field count 109011
field mean 4.9023401308125
field stddev 0.92863562437422
field sum 534409
field sqrsum 2713861
field min 3
field max 7
statistic Basic.rack[2].node[7].app 	throughput
field count 109281
field mean 54641
field stddev 31546.851720893
field sum 5971223121
field sqrsum 4.3502947966504e+014
field min 1
field max 109281
statistic Basic.rack[2].node[7].app 	"End-to-End Delay"
field count 109281
field mean 0.00033205567736467
field stddev 0.00023506411389836
field sum 36.287376478088
field sqrsum 0.018087710817826
field min 8.496e-007
field max 0.001064670382
statistic Basic.rack[2].node[7].app 	hops
field count 109281
field mean 4.9005957119719
field stddev 0.93082074657493
field sum 535542
field sqrsum 2719158
field min 3
field max 7
statistic Basic.rack[2].node[8].app 	throughput
field count 108507
field mean 54254
field stddev 31323.417166714
field sum 5886938778
field sqrsum 4.2585133963589e+014
field min 1
field max 108507
statistic Basic.rack[2].node[8].app 	"End-to-End Delay"
field count 108507
field mean 0.0003321198867613
field stddev 0.00023405097268489
field sum 36.037332552809
field sqrsum 0.017912658058665
field min 8.496e-007
field max 0.001014716844
statistic Basic.rack[2].node[8].app 	hops
field count 108507
field mean 4.9018957302294
field stddev 0.92702151176325
field sum 531890
field sqrsum 2700516
field min 3
field max 7
statistic Basic.rack[2].node[9].app 	throughput
field count 108897
field mean 54449
field stddev 31436.000469207
field sum 5929332753
field sqrsum 4.3045967564654e+014
field min 1
field max 108897
statistic Basic.rack[2].node[9].app 	"End-to-End Delay"
field count 108897
field mean 0.00033091974321732
field stddev 0.00023446812164764
field sum 36.036167277136
field sqrsum 0.017911669498197
field min 8.496e-007
field max 0.001091842299
statistic Basic.rack[2].node[9].app 	hops
field count 108897
field mean 4.8970127735383
field stddev 0.92713128523606
field sum 533270
field sqrsum 2705034
field min 3
field max 7
statistic Basic.rack[2].eps.queue[0] 	dropsum
field count 0
field mean nan
field stddev nan
field sum 0
field sqrsum 0
field min nan
field max nan
statistic Basic.rack[2].eps.queue[1] 	dropsum
field count 1280766
field mean 640383.5
field stddev 369725.44177235
field sum 820181413761
field sqrsum 7.0030725244548e+017
field min 1
field max 1280766
statistic Basic.rack[2].eps.queue[2] 	dropsum
field count 0
field mean nan
field stddev nan
field sum 0
field sqrsum 0
field min nan
field max nan
statistic Basic.rack[2].eps.queue[3] 	dropsum
field count 0
field mean nan
field stddev nan
field sum 0
field sqrsum 0
field min nan
field max nan
statistic Basic.rack[3].node[0].app 	throughput
field count 107264
field mean 53632.5
field stddev 30964.593974409
field sum 5752836480
field sqrsum 4.1138341907264e+014
field min 1
field max 107264
statistic Basic.rack[3].node[0].app 	"End-to-End Delay"
field count 107264
field mean 0.00031856807016739
field stddev 0.00021897791741824
field sum 34.170885478435
field sqrsum 0.016029156372024
field min 8.496e-007
field max 0.001027362207
statistic Basic.rack[3].node[0].app 	hops
field count 107264
field mean 4.8575197643198
field stddev 0.89369243541498
field sum 521037
field sqrsum 2616617
field min 3
field max 7
statistic Basic.rack[3].node[1].app 	throughput
field count 107287
field mean 53644
field stddev 30971.233502505
field sum 5755303828
field sqrsum 4.116481062977e+014
field min 1
field max 107287
statistic Basic.rack[3].node[1].app 	"End-to-End Delay"
field count 107287
field mean 0.00031841597304541
field stddev 0.00021836563695679
field sum 34.161894500123
field sqrsum 0.015993470374212
field min 8.496e-007
field max 0.000981172429
statistic Basic.rack[3].node[1].app 	hops
field count 107287
field mean 4.8506995255716
field stddev 0.89112650829352
field sum 520417
field sqrsum 2609583
field min 3
field max 7
statistic Basic.rack[3].node[2].app 	throughput
field count 107464
field mean 53732.5
field stddev 31022.329001328
field sum 5774309380
field sqrsum 4.1368884691134e+014
field min 1
field max 107464
statistic Basic.rack[3].node[2].app 	"End-to-End Delay"
field count 107464
field mean 0.00031903765342081
field stddev 0.00021862102176871
field sum 34.285062387214
field sqrsum 0.016074436180423
field min 8.496e-007
field max 0.000990345031
statistic Basic.rack[3].node[2].app 	hops
field count 107464
field mean 4.8542953919452
field stddev 0.89104033006243
field sum 521662
field sqrsum 2617622
field min 3
field max 7
statistic Basic.rack[3].node[3].app 	throughput
field count 107548
field mean 53774.5
field stddev 31046.577712635
field sum 5783339926
field sqrsum 4.1465968935427e+014
field min 1
field max 107548
statistic Basic.rack[3].node[3].app 	"End-to-End Delay"
field count 107548
field mean 0.00031746679178889
field stddev 0.00021865237710183
field sum 34.142918523311
field sqrsum 0.015980942488739
field min 8.496e-007
field max 0.001023421671
statistic Basic.rack[3].node[3].app 	hops
field count 107548
field mean 4.8503179975453
field stddev 0.88983512565645
field sum 521642
field sqrsum 2615286
field min 3
field max 7
statistic Basic.rack[3].node[4].app 	throughput
field count 107619
field mean 53810
field stddev 31067.073647191
field sum 5790978390
field sqrsum 4.1548146589507e+014
field min 1
field max 107619
statistic Basic.rack[3].node[4].app 	"End-to-End Delay"
field count 107619
field mean 0.00031793635054592
field stddev 0.00021829783636974
field sum 34.215992109402
field sqrsum 0.016006929953723
field min 8.496e-007
field max 0.001019428771
statistic Basic.rack[3].node[4].app 	hops
field count 107619
field mean 4.8511136509352
field stddev 0.89086185141531
field sum 522072
field sqrsum 2618040
field min 3
field max 7
statistic Basic.rack[3].node[5].app 	throughput
field count 107169
field mean 53585
field stddev 30937.169836622
field sum 5742650865
field sqrsum 4.1029134791774e+014
field min 1
field max 107169
statistic Basic.rack[3].node[5].app 	"End-to-End Delay"
field count 107169
field mean 0.00031789766139525
field stddev 0.00021903329198085
field sum 34.068774474068
field sqrsum 0.01597183101042
field min 8.496e-007
field max 0.001039585947
statistic Basic.rack[3].node[5].app 	hops
field count 107169
field mean 4.8569549030037
field stddev 0.88870604522665
field sum 520515
field sqrsum 2612759
field min 3
field max 7
statistic Basic.rack[3].node[6].app 	throughput
field count 107585
field mean 53793
field stddev 31057.258692615
field sum 5787319905
field sqrsum 4.1508780375958e+014
field min 1
field max 107585
statistic Basic.rack[3].node[6].app 	"End-to-End Delay"
field count 107585
field mean 0.00031898265499153
field stddev 0.00021784463687163
field sum 34.317748937264
field sqrsum 0.016052303722325
field min 8.496e-007
field max 0.001079336285
statistic Basic.rack[3].node[6].app 	hops
field count 107585
field mean 4.8514383975461
field stddev 0.89334231479941
field sum 521942
field sqrsum 2618028
field min 3
field max 7
statistic Basic.rack[3].node[7].app 	throughput
field count 107480
field mean 53740.5
field stddev 31026.947803482
field sum 5776028940
field sqrsum 4.1387365232378e+014
field min 1
field max 107480
statistic Basic.rack[3].node[7].app 	"End-to-End Delay"
field count 107480
field mean 0.00031760915394786
field stddev 0.00021926962241413
field sum 34.136631866316
field sqrsum 0.016009607589392
field min 8.496e-007
field max 0.00104332314
statistic Basic.rack[3].node[7].app 	hops
field count 107480
field mean 4.8507257164124
field stddev 0.89100787034681
field sum 521356
field sqrsum 2614282
field min 3
field max 7
statistic Basic.rack[3].node[8].app 	throughput
field count 107433
field mean 53717
field stddev 31013.380072156
field sum 5770978461
field sqrsum 4.1333094299323e+014
field min 1
field max 107433
statistic Basic.rack[3].node[8].app 	"End-to-End Delay"
field count 107433
field mean 0.00031728969194021
field stddev 0.00021859193132775
field sum 34.087383474213
field sqrsum 0.015948937683646
field min 8.496e-007
field max 0.001005673874
statistic Basic.rack[3].node[8].app 	hops
field count 107433
field mean 4.8511444342055
field stddev 0.88833873541423
field sum 521173
field sqrsum 2613065
field min 3
field max 7
statistic Basic.rack[3].node[9].app 	throughput
field count 106983
field mean 53492
field stddev 30883.476261587
field sum 5722734636
field sqrsum 4.08158787287e+014
field min 1
field max 106983
statistic Basic.rack[3].node[9].app 	"End-to-End Delay"
field count 106983
field mean 0.00031857518736844
field stddev 0.00021900502348395
field sum 34.082129270238
field sqrsum 0.015988919813875
field min 8.496e-007
field max 0.001026606429
statistic Basic.rack[3].node[9].app 	hops
field count 106983
field mean 4.8511071852537
field stddev 0.89141067131327
field sum 518986
field sqrsum 2602666
field min 3
field max 7
statistic Basic.rack[3].eps.queue[0] 	dropsum
field count 1286768
field mean 643384.5
field stddev 371458.0699302
field sum 827886586296
field sqrsum 7.1019892054583e+017
field min 1
field max 1286768
statistic Basic.rack[3].eps.queue[1] 	dropsum
field count 0
field mean nan
field stddev nan
field sum 0
field sqrsum 0
field min nan
field max nan
statistic Basic.rack[3].eps.queue[2] 	dropsum
field count 0
field mean nan
field stddev nan
field sum 0
field sqrsum 0
field min nan
field max nan
statistic Basic.rack[3].eps.queue[3] 	dropsum
field count 0
field mean nan
field stddev nan
field sum 0
field sqrsum 0
field min nan
field max nan
statistic Basic.rack[4].node[0].app 	throughput
field count 164417
field mean 82209
field stddev 47463.243942023
field sum 13516557153
field sqrsum 1.4815723571356e+015
field min 1
field max 164417
statistic Basic.rack[4].node[0].app 	"End-to-End Delay"
field count 164417
field mean 9.5089868222191e-005
field stddev 0.00016540058167811
field sum 15.634390863488
field sqrsum 0.005984658622341
field min 8.496e-007
field max 0.000643311098
statistic Basic.rack[4].node[0].app 	hops
field count 164417
field mean 5.2919406144134
field stddev 1.0015705434949
field sum 870085
field sqrsum 4769371
field min 4
field max 7
statistic Basic.rack[4].node[1].app 	throughput
field count 163681
field mean 81841
field stddev 47250.77904296
field sum 13395816721
field sqrsum 1.4617649164122e+015
field min 1
field max 163681
statistic Basic.rack[4].node[1].app 	"End-to-End Delay"
field count 163681
field mean 9.4917809585585e-005
field stddev 0.00016519511190568
field sum 15.536241990778
field sqrsum 0.0059413991425519
field min 8.496e-007
field max 0.000631906647
statistic Basic.rack[4].node[1].app 	hops
field count 163681
field mean 5.2936137975697
field stddev 1.0004465477273
field sum 866464
field sqrsum 4750552
field min 4
field max 7
statistic Basic.rack[4].node[2].app 	throughput
field count 163914
field mean 81957.5
field stddev 47318.040349321
field sum 13433981655
field sqrsum 1.4680162573257e+015
field min 1
field max 163914
statistic Basic.rack[4].node[2].app 	"End-to-End Delay"
field count 163914
field mean 9.5180534374413e-005
field stddev 0.0001654226696686
field sum 15.601422111448
field sqrsum 0.0059703751491866
field min 8.496e-007
field max 0.000610585417
statistic Basic.rack[4].node[2].app 	hops
field count 163914
field mean 5.2953988066913
field stddev 1.0017487585134
field sum 867990
field sqrsum 4760840
field min 4
field max 7
statistic Basic.rack[4].node[3].app 	throughput
field count 164105
field mean 82053
field stddev 47373.177300029
field sum 13465307565
field sqrsum 1.4731540204054e+015
field min 1
field max 164105
statistic Basic.rack[4].node[3].app 	"End-to-End Delay"
field count 164105
field mean 9.5838463215658e-005
field stddev 0.00016591179281995
field sum 15.727571006006
field sqrsum 0.0060245515859862
field min 8.496e-007
field max 0.000625080469
statistic Basic.rack[4].node[3].app 	hops
field count 164105
field mean 5.295262179702
field stddev 1.0022988443509
field sum 868979
field sqrsum 4766331
field min 4
field max 7
statistic Basic.rack[4].node[4].app 	throughput
field count 163543
field mean 81772
field stddev 47210.941874386
field sum 13373238196
field sqrsum 1.4580707872717e+015
field min 1
field max 163543
statistic Basic.rack[4].node[4].app 	"End-to-End Delay"
field count 163543
field mean 9.5068217055953e-005
field stddev 0.00016522620641954
field sum 15.547741421982
field sqrsum 0.0059427434771587
field min 8.496e-007
field max 0.000636202899
statistic Basic.rack[4].node[4].app 	hops
field count 163543
field mean 5.2949193790012
field stddev 1.0004140235486
field sum 865947
field sqrsum 4748797
field min 4
field max 7
statistic Basic.rack[4].node[5].app 	throughput
field count 163955
field mean 81978
field stddev 47329.87602984
field sum 13440702990
field sqrsum 1.4691181193846e+015
field min 1
field max 163955
statistic Basic.rack[4].node[5].app 	"End-to-End Delay"
field count 163955
field mean 9.4729327881057e-005
field stddev 0.00016500109777314
field sum 15.531346952739
field sqrsum 0.005934981102936
field min 8.496e-007
field max 0.000605193606
statistic Basic.rack[4].node[5].app 	hops
field count 163955
field mean 5.2956481961514
field stddev 1.0040904817902
field sum 868248
field sqrsum 4763234
field min 4
field max 7
statistic Basic.rack[4].node[6].app 	throughput
field count 163240
field mean 81620.5
field stddev 47123.473308604
field sum 13323730420
field sqrsum 1.4499816104173e+015
field min 1
field max 163240
statistic Basic.rack[4].node[6].app 	"End-to-End Delay"
field count 163240
field mean 9.5025899921676e-005
field stddev 0.00016530637046451
field sum 15.512027903214
field sqrsum 0.0059347453389173
field min 8.496e-007
field max 0.000648833824
statistic Basic.rack[4].node[6].app 	hops
field count 163240
field mean 5.2963611859838
field stddev 1.0030022457656
field sum 864578
field sqrsum 4743338
field min 4
field max 7
statistic Basic.rack[4].node[7].app 	throughput
field count 163394
field mean 81697.5
field stddev 47167.929279331
field sum 13348881315
field sqrsum 1.4540891920158e+015
field min 1
field max 163394
statistic Basic.rack[4].node[7].app 	"End-to-End Delay"
field count 163394
field mean 9.5377380871975e-005
field stddev 0.00016550975441175
field sum 15.584091770195
field sqrsum 0.0059622725387666
field min 8.496e-007
field max 0.000635898942
statistic Basic.rack[4].node[7].app 	hops
field count 163394
field mean 5.2942580510912
field stddev 1.0010064916559
field sum 865050
field sqrsum 4743520
field min 4
field max 7
statistic Basic.rack[4].node[8].app 	throughput
field count 163013
field mean 81507
field stddev 47057.94405305
field sum 13286700591
field sqrsum 1.4439410445273e+015
field min 1
field max 163013
statistic Basic.rack[4].node[8].app 	"End-to-End Delay"
field count 163013
field mean 9.5007274682694e-005
field stddev 0.00016513084965475
field sum 15.48742086785
field sqrsum 0.0059164610606437
field min 8.496e-007
field max 0.000606420064
statistic Basic.rack[4].node[8].app 	hops
field count 163013
field mean 5.2976020317398
field stddev 1.0004582435765
field sum 863578
field sqrsum 4738054
field min 4
field max 7
statistic Basic.rack[4].node[9].app 	throughput
field count 164266
field mean 82133.5
field stddev 47419.653996699
field sum 13491741511
field sqrsum 1.4774941046111e+015
field min 1
field max 164266
statistic Basic.rack[4].node[9].app 	"End-to-End Delay"
field count 164266
field mean 9.3735448877936e-005
field stddev 0.00016428775334012
field sum 15.397547245383
field sqrsum 0.0058768848833255
field min 8.496e-007
field max 0.000624350801
statistic Basic.rack[4].node[9].app 	hops
field count 164266
field mean 5.2905835656801
field stddev 1.0008992841333
field sum 869063
field sqrsum 4762411
field min 4
field max 7
statistic Basic.rack[4].eps.queue[0] 	dropsum
field count 0
field mean nan
field stddev nan
field sum 0
field sqrsum 0
field min nan
field max nan
statistic Basic.rack[4].eps.queue[1] 	dropsum
field count 0
field mean nan
field stddev nan
field sum 0
field sqrsum 0
field min nan
field max nan
statistic Basic.rack[4].eps.queue[2] 	dropsum
field count 0
field mean nan
field stddev nan
field sum 0
field sqrsum 0
field min nan
field max nan
statistic Basic.rack[4].eps.queue[3] 	dropsum
field count 0
field mean nan
field stddev nan
field sum 0
field sqrsum 0
field min nan
field max nan
statistic Basic.rack[5].node[0].app 	throughput
field count 164136
field mean 82068.5
field stddev 47382.126229202
field sum 13470395316
field sqrsum 1.4739890271898e+015
field min 1
field max 164136
statistic Basic.rack[5].node[0].app 	"End-to-End Delay"
field count 164136
field mean 9.4348456672182e-005
field stddev 0.00016498577078537
field sum 15.485978284345
field sqrsum 0.005928882840412
field min 8.496e-007
field max 0.000612559923
statistic Basic.rack[5].node[0].app 	hops
field count 164136
field mean 5.2975764000585
field stddev 1.0051697964765
field sum 869523
field sqrsum 4772201
field min 4
field max 7
statistic Basic.rack[5].node[1].app 	throughput
field count 163123
field mean 81562
field stddev 47089.698317856
field sum 13304638126
field sqrsum 1.4468660915644e+015
field min 1
field max 163123
statistic Basic.rack[5].node[1].app 	"End-to-End Delay"
field count 163123
field mean 9.5000458442814e-005
field stddev 0.00016545749214308
field sum 15.496759782567
field sqrsum 0.0059378567960136
field min 8.496e-007
field max 0.000659425623
statistic Basic.rack[5].node[1].app 	hops
field count 163123
field mean 5.2965001869755
field stddev 1.0014992009758
field sum 863981
field sqrsum 4739687
field min 4
field max 7
statistic Basic.rack[5].node[2].app 	throughput
field count 163602
field mean 81801.5
field stddev 47227.973707327
field sum 13382889003
field sqrsum 1.4596493987422e+015
field min 1
field max 163602
statistic Basic.rack[5].node[2].app 	"End-to-End Delay"
field count 163602
field mean 9.535731374901e-005
field stddev 0.00016574034795338
field sum 15.600647243966
field sqrsum 0.0059817328607294
field min 8.496e-007
field max 0.000640040802
statistic Basic.rack[5].node[2].app 	hops
field count 163602
field mean 5.2958399041577
field stddev 1.0026503488617
field sum 866410
field sqrsum 4752838
field min 4
field max 7
statistic Basic.rack[5].node[3].app 	throughput
field count 163034
field mean 81517.5
field stddev 47064.006230877
field sum 13290124095
field sqrsum 1.4444991578442e+015
field min 1
field max 163034
statistic Basic.rack[5].node[3].app 	"End-to-End Delay"
field count 163034
field mean 9.4397609860076e-005
field stddev 0.00016501387949541
field sum 15.390019925928
field sqrsum 0.0058921012823191
field min 8.496e-007
field max 0.000653417385
statistic Basic.rack[5].node[3].app 	hops
field count 163034
field mean 5.2974900940908
field stddev 1.0034456133964
field sum 863671
field sqrsum 4739447
field min 4
field max 7
statistic Basic.rack[5].node[4].app 	throughput
field count 163308
field mean 81654.5
field stddev 47143.103217756
field sum 13334833086
field sqrsum 1.4517943926834e+015
field min 1
field max 163308
statistic Basic.rack[5].node[4].app 	"End-to-End Delay"
field count 163308
field mean 9.5068204863225e-005
field stddev 0.00016546573270167
field sum 15.525398399804
field sqrsum 0.0059471391984815
field min 8.496e-007
field max 0.000634873586
statistic Basic.rack[5].node[4].app 	hops
field count 163308
field mean 5.2983503563818
field stddev 1.004275659121
field sum 865263
field sqrsum 4749173
field min 4
field max 7
statistic Basic.rack[5].node[5].app 	throughput
field count 163251
field mean 81626
field stddev 47126.648735084
field sum 13325526126
field sqrsum 1.4502747522391e+015
field min 1
field max 163251
statistic Basic.rack[5].node[5].app 	"End-to-End Delay"
field count 163251
field mean 9.4710407277423e-005
field stddev 0.00016525522314675
field sum 15.461568698447
field sqrsum 0.005922612861469
field min 8.496e-007
field max 0.000635913304
statistic Basic.rack[5].node[5].app 	hops
field count 163251
field mean 5.2983503929532
field stddev 1.0024672343584
field sum 864961
field sqrsum 4746923
field min 4
field max 7
statistic Basic.rack[5].node[6].app 	throughput
field count 163759
field mean 81880
field stddev 47273.295703459
field sum 13408586920
field sqrsum 1.4638556598172e+015
field min 1
field max 163759
statistic Basic.rack[5].node[6].app 	"End-to-End Delay"
field count 163759
field mean 9.5132080714805e-005
field stddev 0.00016548973008093
field sum 15.578734405776
field sqrsum 0.0059668533260508
field min 8.496e-007
field max 0.000633442054
statistic Basic.rack[5].node[6].app 	hops
field count 163759
field mean 5.2974493004965
field stddev 1.0033872108385
field sum 867505
field sqrsum 4760433
field min 4
field max 7
statistic Basic.rack[5].node[7].app 	throughput
field count 163321
field mean 81661
field stddev 47146.855994506
field sum 13336956181
field sqrsum 1.4521411259435e+015
field min 1
field max 163321
statistic Basic.rack[5].node[7].app 	"End-to-End Delay"
field count 163321
field mean 9.4541648992987e-005
field stddev 0.00016503917385849
field sum 15.440636655184
field sqrsum 0.0059082818001196
field min 8.496e-007
field max 0.000619336549
statistic Basic.rack[5].node[7].app 	hops
field count 163321
field mean 5.2955468065956
field stddev 1.0038355636247
field sum 864874
field sqrsum 4744556
field min 4
field max 7
statistic Basic.rack[5].node[8].app 	throughput
field count 164690
field mean 82345.5
field stddev 47542.052253768
field sum 13561480395
field sqrsum 1.4889646579952e+015
field min 1
field max 164690
statistic Basic.rack[5].node[8].app 	"End-to-End Delay"
field count 164690
field mean 9.4667333761851e-005
field stddev 0.00016519992961525
field sum 15.590763197239
field sqrsum 0.005970466239893
field min 8.496e-007
field max 0.000646063776
statistic Basic.rack[5].node[8].app 	hops
field count 164690
field mean 5.3012386908738
field stddev 1.0047529793994
field sum 873061
field sqrsum 4794563
field min 4
field max 7
statistic Basic.rack[5].node[9].app 	throughput
field count 163085
field mean 81543
field stddev 47078.728662741
field sum 13298440155
field sqrsum 1.4458551745988e+015
field min 1
field max 163085
statistic Basic.rack[5].node[9].app 	"End-to-End Delay"
field count 163085
field mean 9.4632821285804e-005
field stddev 0.00016519658174564
field sum 15.433193659395
field sqrsum 0.0059110344410633
field min 8.496e-007
field max 0.000618135206
statistic Basic.rack[5].node[9].app 	hops
field count 163085
field mean 5.2985007818009
field stddev 1.0026811676367
field sum 864106
field sqrsum 4742426
field min 4
field max 7
statistic Basic.rack[5].eps.queue[0] 	dropsum
field count 0
field mean nan
field stddev nan
field sum 0
field sqrsum 0
field min nan
field max nan
statistic Basic.rack[5].eps.queue[1] 	dropsum
field count 0
field mean nan
field stddev nan
field sum 0
field sqrsum 0
field min nan
field max nan
statistic Basic.rack[5].eps.queue[2] 	dropsum
field count 0
field mean nan
field stddev nan
field sum 0
field sqrsum 0
field min nan
field max nan
statistic Basic.rack[5].eps.queue[3] 	dropsum
field count 0
field mean nan
field stddev nan
field sum 0
field sqrsum 0
field min nan
field max nan
statistic Basic.rack[6].node[0].app 	throughput
field count 107879
field mean 53940
field stddev 31142.129182187
field sum 5818993260
field sqrsum 4.1850005559478e+014
field min 1
field max 107879
statistic Basic.rack[6].node[0].app 	"End-to-End Delay"
field count 107879
field mean 0.00032226966515409
field stddev 0.00022289382024542
field sum 34.766129207158
field sqrsum 0.016563626407561
field min 8.496e-007
field max 0.000992132713
statistic Basic.rack[6].node[0].app 	hops
field count 107879
field mean 4.8652193661417
field stddev 0.9014465098474
field sum 524855
field sqrsum 2641197
field min 3
field max 7
statistic Basic.rack[6].node[1].app 	throughput
field count 107229
field mean 53615
field stddev 30954.490344698
field sum 5749082835
field sqrsum 4.1098085190376e+014
field min 1
field max 107229
statistic Basic.rack[6].node[1].app 	"End-to-End Delay"
field count 107229
field mean 0.00032196059763985
field stddev 0.0002234727314412
field sum 34.523512924323
field sqrsum 0.016470183789473
field min 8.496e-007
field max 0.000991287208
statistic Basic.rack[6].node[1].app 	hops
field count 107229
field mean 4.870156394259
field stddev 0.90135904297068
field sum 522222
field sqrsum 2630420
field min 3
field max 7
statistic Basic.rack[6].node[2].app 	throughput
field count 106747
field mean 53374
field stddev 30815.348929822
field sum 5697514378
field sqrsum 4.0546361071037e+014
field min 1
field max 106747
statistic Basic.rack[6].node[2].app 	"End-to-End Delay"
field count 106747
field mean 0.00032178367722479
field stddev 0.00022309576752567
field sum 34.349442192715
field sqrsum 0.016366022001336
field min 8.496e-007
field max 0.000999851967
statistic Basic.rack[6].node[2].app 	hops
field count 106747
field mean 4.8705724751047
field stddev 0.89877908616505
field sum 519919
field sqrsum 2618533
field min 3
field max 7
statistic Basic.rack[6].node[3].app 	throughput
field count 108099
field mean 54050
field stddev 31205.637711798
field sum 5842750950
field sqrsum 4.2106563754635e+014
field min 1
field max 108099
statistic Basic.rack[6].node[3].app 	"End-to-End Delay"
field count 108099
field mean 0.00032127678401278
field stddev 0.00022302134158633
field sum 34.729699074998
field sqrsum 0.01653448043411
field min 8.496e-007
field max 0.00098458405
statistic Basic.rack[6].node[3].app 	hops
field count 108099
field mean 4.8669645417626
field stddev 0.8975113507271
field sum 526114
field sqrsum 2647654
field min 3
field max 7
statistic Basic.rack[6].node[4].app 	throughput
field count 107718
field mean 53859.5
field stddev 31095.652485516
field sum 5801637621
field sqrsum 4.1662913471846e+014
field min 1
field max 107718
statistic Basic.rack[6].node[4].app 	"End-to-End Delay"
field count 107718
field mean 0.00032254931998896
field stddev 0.00022349703534824
field sum 34.744367650571
field sqrsum 0.016587335926838
field min 8.496e-007
field max 0.000989408647
statistic Basic.rack[6].node[4].app 	hops
field count 107718
field mean 4.8714235318146
field stddev 0.90201149555641
field sum 524740
field sqrsum 2643872
field min 3
field max 7
statistic Basic.rack[6].node[5].app 	throughput
field count 107928
field mean 53964.5
field stddev 31156.274263782
field sum 5824280556
field sqrsum 4.1907057599216e+014
field min 1
field max 107928
statistic Basic.rack[6].node[5].app 	"End-to-End Delay"
field count 107928
field mean 0.0003225482441827
field stddev 0.00022282319695923
field sum 34.81198689815
field sqrsum 0.016587139914719
field min 8.496e-007
field max 0.000991684563
statistic Basic.rack[6].node[5].app 	hops
field count 107928
field mean 4.866021792306
field stddev 0.90167552617245
field sum 525180
field sqrsum 2643284
field min 3
field max 7
statistic Basic.rack[6].node[6].app 	throughput
field count 107771
field mean 53886
field stddev 31110.95226765
field sum 5807348106
field sqrsum 4.1724441093719e+014
field min 1
field max 107771
statistic Basic.rack[6].node[6].app 	"End-to-End Delay"
field count 107771
field mean 0.00032276800033077
field stddev 0.00022316012114325
field sum 34.785030163648
field sqrsum 0.016594488010459
field min 8.496e-007
field max 0.001004310031
statistic Basic.rack[6].node[6].app 	hops
field count 107771
field mean 4.8710228168988
field stddev 0.90146034931604
field sum 524955
field sqrsum 2644645
field min 3
field max 7
statistic Basic.rack[6].node[7].app 	throughput
field count 107474
field mean 53737.5
field stddev 31025.215752674
field sum 5775384075
field sqrsum 4.1380434384572e+014
field min 1
field max 107474
statistic Basic.rack[6].node[7].app 	"End-to-End Delay"
field count 107474
field mean 0.00032207588726913
field stddev 0.00022308365565323
field sum 34.614783908363
field sqrsum 0.016497122671953
field min 8.496e-007
field max 0.000990845796
statistic Basic.rack[6].node[7].app 	hops
field count 107474
field mean 4.8707129166124
field stddev 0.8998729615906
field sum 523475
field sqrsum 2636725
field min 3
field max 7
statistic Basic.rack[6].node[8].app 	throughput
field count 108153
field mean 54077
field stddev 31221.226169066
field sum 5848589781
field sqrsum 4.2169696991959e+014
field min 1
field max 108153
statistic Basic.rack[6].node[8].app 	"End-to-End Delay"
field count 108153
field mean 0.00032064631554231
field stddev 0.00022354657472474
field sum 34.678860964848
field sqrsum 0.016524336578071
field min 8.496e-007
field max 0.000999367299
statistic Basic.rack[6].node[8].app 	hops
field count 108153
field mean 4.8640074708977
field stddev 0.89912992829135
field sum 526057
field sqrsum 2646179
field min 3
field max 7
statistic Basic.rack[6].node[9].app 	throughput
field count 107710
field mean 53855.5
field stddev 31093.34308444
field sum 5800775905
field sqrsum 4.1653631541034e+014
field min 1
field max 107710
statistic Basic.rack[6].node[9].app 	"End-to-End Delay"
field count 107710
field mean 0.00032115781692907
field stddev 0.00022367368104791
field sum 34.59190846143
field sqrsum 0.016498133983546
field min 8.496e-007
field max 0.000988644352
statistic Basic.rack[6].node[9].app 	hops
field count 107710
field mean 4.8673289388172
field stddev 0.9008549878735
field sum 524260
field sqrsum 2639156
field min 3
field max 7
statistic Basic.rack[6].eps.queue[0] 	dropsum
field count 0
field mean nan
field stddev nan
field sum 0
field sqrsum 0
field min nan
field max nan
statistic Basic.rack[6].eps.queue[1] 	dropsum
field count 1286341
field mean 643171
field stddev 371334.80564773
field sum 827337227311
field sqrsum 7.0949213999039e+017
field min 1
field max 1286341
statistic Basic.rack[6].eps.queue[2] 	dropsum
field count 0
field mean nan
field stddev nan
field sum 0
field sqrsum 0
field min nan
field max nan
statistic Basic.rack[6].eps.queue[3] 	dropsum
field count 0
field mean nan
field stddev nan
field sum 0
field sqrsum 0
field min nan
field max nan
statistic Basic.rack[7].node[0].app 	throughput
field count 106591
field mean 53296
field stddev 30770.315608824
field sum 5680873936
field sqrsum 4.036885827661e+014
field min 1
field max 106591
statistic Basic.rack[7].node[0].app 	"End-to-End Delay"
field count 106591
field mean 0.00031133223624772
field stddev 0.00021184245220231
field sum 33.185214393881
field sqrsum 0.015115090372934
field min 8.496e-007
field max 0.000997037719
statistic Basic.rack[7].node[0].app 	hops
field count 106591
field mean 4.8308675216482
field stddev 0.87367435227213
field sum 514927
field sqrsum 2568905
field min 3
field max 7
statistic Basic.rack[7].node[1].app 	throughput
field count 106906
field mean 53453.5
field stddev 30861.248276223
field sum 5714499871
field sqrsum 4.0727812030604e+014
field min 1
field max 106906
statistic Basic.rack[7].node[1].app 	"End-to-End Delay"
field count 106906
field mean 0.00031227935261711
field stddev 0.0002116362330875
field sum 33.384536470884
field sqrsum 0.015213565178145
field min 8.496e-007
field max 0.00096321647
statistic Basic.rack[7].node[1].app 	hops
field count 106906
field mean 4.834836211251
field stddev 0.87241746332658
field sum 516873
field sqrsum 2580363
field min 3
field max 7
statistic Basic.rack[7].node[2].app 	throughput
field count 107095
field mean 53548
field stddev 30915.807876662
field sum 5734723060
field sqrsum 4.0944202231482e+014
field min 1
field max 107095
statistic Basic.rack[7].node[2].app 	"End-to-End Delay"
field count 107095
field mean 0.0003117722502629
field stddev 0.00021178279626795
field sum 33.389249141905
field sqrsum 0.015213216372196
field min 8.496e-007
field max 0.000982966993
statistic Basic.rack[7].node[2].app 	hops
field count 107095
field mean 4.83026285074
field stddev 0.87323033416643
field sum 517297
field sqrsum 2580343
field min 3
field max 7
statistic Basic.rack[7].node[3].app 	throughput
field count 106655
field mean 53328
field stddev 30788.790817439
field sum 5687697840
field sqrsum 4.0441617131608e+014
field min 1
field max 106655
statistic Basic.rack[7].node[3].app 	"End-to-End Delay"
field count 106655
field mean 0.00031133897920723
field stddev 0.00021168253667027
field sum 33.205858827347
field sqrsum 0.015117390212709
field min 8.496e-007
field max 0.001060612348
statistic Basic.rack[7].node[3].app 	hops
field count 106655
field mean 4.828512493554
field stddev 0.87408079070243
field sum 514985
field sqrsum 2568097
field min 3
field max 7
statistic Basic.rack[7].node[4].app 	throughput
field count 106752
field mean 53376.5
field stddev 30816.792305495
field sum 5698048128
field sqrsum 4.0552058852288e+014
field min 1
field max 106752
statistic Basic.rack[7].node[4].app 	"End-to-End Delay"
field count 106752
field mean 0.00031218397404515
field stddev 0.00021163267520354
field sum 33.326263597267
field sqrsum 0.015185130746834
field min 8.496e-007
field max 0.00097768394
statistic Basic.rack[7].node[4].app 	hops
field count 106752
field mean 4.8317783273381
field stddev 0.87477429660332
field sum 515802
field sqrsum 2573930
field min 3
field max 7
statistic Basic.rack[7].node[5].app 	throughput
field count 106428
field mean 53214.5
field stddev 30723.261561885
field sum 5663512806
field sqrsum 4.0183944844891e+014
field min 1
field max 106428
statistic Basic.rack[7].node[5].app 	"End-to-End Delay"
field count 106428
field mean 0.00031263776708398
field stddev 0.0002119273753623
field sum 33.273412275214
field sqrsum 0.015182503776057
field min 8.496e-007
field max 0.000995822098
statistic Basic.rack[7].node[5].app 	hops
field count 106428
field mean 4.8331454128613
field stddev 0.87425779166569
field sum 514382
field sqrsum 2567428
field min 3
field max 7
statistic Basic.rack[7].node[6].app 	throughput
field count 106881
field mean 53441
field stddev 30854.031397858
field sum 5711827521
field sqrsum 4.0699246212384e+014
field min 1
field max 106881
statistic Basic.rack[7].node[6].app 	"End-to-End Delay"
field count 106881
field mean 0.00031300876411577
field stddev 0.00021096954987317
field sum 33.454689717458
field sqrsum 0.015228642258405
field min 8.496e-007
field max 0.000980140622
statistic Basic.rack[7].node[6].app 	hops
field count 106881
field mean 4.8323836790449
field stddev 0.87277386627424
field sum 516490
field sqrsum 2577292
field min 3
field max 7
statistic Basic.rack[7].node[7].app 	throughput
field count 106909
field mean 53455
field stddev 30862.114301627
field sum 5714820595
field sqrsum 4.0731240826744e+014
field min 1
field max 106909
statistic Basic.rack[7].node[7].app 	"End-to-End Delay"
field count 106909
field mean 0.00031288101834494
field stddev 0.00021096774350146
field sum 33.449796790239
field sqrsum 0.015224002404788
field min 8.496e-007
field max 0.000972956206
statistic Basic.rack[7].node[7].app 	hops
field count 106909
field mean 4.8311928836674
field stddev 0.86946157260191
field sum 516498
field sqrsum 2576120
field min 3
field max 7
statistic Basic.rack[7].node[8].app 	throughput
field count 106964
field mean 53482.5
field stddev 30877.99143403
field sum 5720702130
field sqrsum 4.0794136198959e+014
field min 1
field max 106964
statistic Basic.rack[7].node[8].app 	"End-to-End Delay"
field count 106964
field mean 0.00031290551977806
field stddev 0.00021147973821817
field sum 33.469626017541
field sqrsum 0.015256609675068
field min 8.496e-007
field max 0.00099349279
statistic Basic.rack[7].node[8].app 	hops
field count 106964
field mean 4.8318873639729
field stddev 0.87383166916086
field sum 516838
field sqrsum 2578978
field min 3
field max 7
statistic Basic.rack[7].node[9].app 	throughput
field count 107079
field mean 53540
field stddev 30911.189074508
field sum 5733009660
field sqrsum 4.0925853859198e+014
field min 1
field max 107079
statistic Basic.rack[7].node[9].app 	"End-to-End Delay"
field count 107079
field mean 0.00031185332402431
field stddev 0.00021153619050331
field sum 33.3929420832
field sqrsum 0.015205179205783
field min 8.496e-007
field max 0.000955206971
statistic Basic.rack[7].node[9].app 	hops
field count 107079
field mean 4.8300507102233
field stddev 0.87203676009281
field sum 517197
field sqrsum 2579515
field min 3
field max 7
statistic Basic.rack[7].eps.queue[0] 	dropsum
field count 1287327
field mean 643664
field stddev 371619.43933044
field sum 828606046128
field sqrsum 7.1112489989824e+017
field min 1
field max 1287327
statistic Basic.rack[7].eps.queue[1] 	dropsum
field count 0
field mean nan
field stddev nan
field sum 0
field sqrsum 0
field min nan
field max nan
statistic Basic.rack[7].eps.queue[2] 	dropsum
field count 0
field mean nan
field stddev nan
field sum 0
field sqrsum 0
field min nan
field max nan
statistic Basic.rack[7].eps.queue[3] 	dropsum
field count 0
field mean nan
field stddev nan
field sum 0
field sqrsum 0
field min nan
field max nan
statistic Basic.rack[8].node[0].app 	throughput
field count 164722
field mean 82361.5
field stddev 47551.289858075
field sum 13566751003
field sqrsum 1.4898327613944e+015
field min 1
field max 164722
statistic Basic.rack[8].node[0].app 	"End-to-End Delay"
field count 164722
field mean 9.52055528107e-005
field stddev 0.00016566187274938
field sum 15.682449070084
field sqrsum 0.0060136356509631
field min 8.496e-007
field max 0.000697233493
statistic Basic.rack[8].node[0].app 	hops
field count 164722
field mean 5.2919039351149
field stddev 1.0005170532315
field sum 871693
field sqrsum 4777807
field min 4
field max 7
statistic Basic.rack[8].node[1].app 	throughput
field count 163272
field mean 81636.5
field stddev 47132.710912911
field sum 13328954628
field sqrsum 1.4508344963334e+015
field min 1
field max 163272
statistic Basic.rack[8].node[1].app 	"End-to-End Delay"
field count 163272
field mean 9.485450120634e-005
field stddev 0.00016532399880374
field sum 15.487084120962
field sqrsum 0.0059315466247105
field min 8.496e-007
field max 0.000678557832
statistic Basic.rack[8].node[1].app 	hops
field count 163272
field mean 5.2948637855848
field stddev 1.0040048572202
field sum 864503
field sqrsum 4742007
field min 4
field max 7
statistic Basic.rack[8].node[2].app 	throughput
field count 163882
field mean 81941.5
field stddev 47308.802745014
field sum 13428736903
field sqrsum 1.4671566503373e+015
field min 1
field max 163882
statistic Basic.rack[8].node[2].app 	"End-to-End Delay"
field count 163882
field mean 9.4346176985018e-005
field stddev 0.00016485085483755
field sum 15.461640176659
field sqrsum 0.0059123446317391
field min 8.496e-007
field max 0.000683399916
statistic Basic.rack[8].node[2].app 	hops
field count 163882
field mean 5.2932658864305
field stddev 1.0031295366206
field sum 867471
field sqrsum 4756663
field min 4
field max 7
statistic Basic.rack[8].node[3].app 	throughput
field count 163314
field mean 81657.5
field stddev 47144.835268564
field sum 13335812955
field sqrsum 1.4519544165596e+015
field min 1
field max 163314
statistic Basic.rack[8].node[3].app 	"End-to-End Delay"
field count 163314
field mean 9.4302317468134e-005
field stddev 0.0001648084045653
field sum 15.400888674991
field sqrsum 0.0058882162048212
field min 8.496e-007
field max 0.000680078147
statistic Basic.rack[8].node[3].app 	hops
field count 163314
field mean 5.297494397296
field stddev 1.0027706949057
field sum 865155
field sqrsum 4747373
field min 4
field max 7
statistic Basic.rack[8].node[4].app 	throughput
field count 163460
field mean 81730.5
field stddev 47186.981838215
field sum 13359667530
field sqrsum 1.4558519561917e+015
field min 1
field max 163460
statistic Basic.rack[8].node[4].app 	"End-to-End Delay"
field count 163460
field mean 9.5833771067883e-005
field stddev 0.00016600159737121
field sum 15.664988218756
field sqrsum 0.0060055977859152
field min 8.496e-007
field max 0.000666688709
statistic Basic.rack[8].node[4].app 	hops
field count 163460
field mean 5.297791508626
field stddev 1.001474520645
field sum 865977
field sqrsum 4751707
field min 4
field max 7
statistic Basic.rack[8].node[5].app 	throughput
field count 164340
field mean 82170.5
field stddev 47441.015956659
field sum 13503899970
field sqrsum 1.4794917820132e+015
field min 1
field max 164340
statistic Basic.rack[8].node[5].app 	"End-to-End Delay"
field count 164340
field mean 9.5929405651795e-005
field stddev 0.00016628229008513
field sum 15.765038524816
field sqrsum 0.0060562712572986
field min 8.496e-007
field max 0.000656393108
statistic Basic.rack[8].node[5].app 	hops
field count 164340
field mean 5.2971461603992
field stddev 1.003982181646
field sum 870533
field sqrsum 4776991
field min 4
field max 7
statistic Basic.rack[8].node[6].app 	throughput
field count 163098
field mean 81549.5
field stddev 47082.481439491
field sum 13300560351
field sqrsum 1.446200961605e+015
field min 1
field max 163098
statistic Basic.rack[8].node[6].app 	"End-to-End Delay"
field count 163098
field mean 9.4828087097381e-005
field stddev 0.00016536097500066
field sum 15.466271349409
field sqrsum 0.0059264024037089
field min 8.496e-007
field max 0.000681767927
statistic Basic.rack[8].node[6].app 	hops
field count 163098
field mean 5.2922108180358
field stddev 1.0032245497652
field sum 863149
field sqrsum 4732117
field min 4
field max 7
statistic Basic.rack[8].node[7].app 	throughput
field count 162708
field mean 81354.5
field stddev 46969.898136998
field sum 13237027986
field sqrsum 1.4358513120401e+015
field min 1
field max 162708
statistic Basic.rack[8].node[7].app 	"End-to-End Delay"
field count 162708
field mean 9.4970720626553e-005
field stddev 0.00016521279911964
field sum 15.452496011705
field sqrsum 0.0059086660137461
field min 8.496e-007
field max 0.000660745338
statistic Basic.rack[8].node[7].app 	hops
field count 162708
field mean 5.2979140546255
field stddev 1.0044374494444
field sum 862013
field sqrsum 4731025
field min 4
field max 7
statistic Basic.rack[8].node[8].app 	throughput
field count 163721
field mean 81861
field stddev 47262.326048344
field sum 13402364781
field sqrsum 1.4628368436617e+015
field min 1
field max 163721
statistic Basic.rack[8].node[8].app 	"End-to-End Delay"
field count 163721
field mean 9.4063327393924e-005
field stddev 0.00016482973531085
field sum 15.400142024261
field sqrsum 0.0058966713548747
field min 8.496e-007
field max 0.000664077055
statistic Basic.rack[8].node[8].app 	hops
field count 163721
field mean 5.2877395080656
field stddev 1.0030733359232
field sum 865714
field sqrsum 4742398
field min 4
field max 7
statistic Basic.rack[8].node[9].app 	throughput
field count 163792
field mean 81896.5
field stddev 47282.821982901
field sum 13413991528
field sqrsum 1.4647408049e+015
field min 1
field max 163792
statistic Basic.rack[8].node[9].app 	"End-to-End Delay"
field count 163792
field mean 9.4881567376084e-005
field stddev 0.00016529748671387
field sum 15.540841683664
field sqrsum 0.0059498433508181
field min 8.496e-007
field max 0.000686175094
statistic Basic.rack[8].node[9].app 	hops
field count 163792
field mean 5.2999352837745
field stddev 1.0049060600363
field sum 868087
field sqrsum 4766207
field min 4
field max 7
statistic Basic.rack[8].eps.queue[0] 	dropsum
field count 0
field mean nan
field stddev nan
field sum 0
field sqrsum 0
field min nan
field max nan
statistic Basic.rack[8].eps.queue[1] 	dropsum
field count 0
field mean nan
field stddev nan
field sum 0
field sqrsum 0
field min nan
field max nan
statistic Basic.rack[8].eps.queue[2] 	dropsum
field count 0
field mean nan
field stddev nan
field sum 0
field sqrsum 0
field min nan
field max nan
statistic Basic.rack[8].eps.queue[3] 	dropsum
field count 0
field mean nan
field stddev nan
field sum 0
field sqrsum 0
field min nan
field max nan
statistic Basic.rack[9].node[0].app 	throughput
field count 163077
field mean 81539
field stddev 47076.419261664
field sum 13297135503
field sqrsum 1.4456424099937e+015
field min 1
field max 163077
statistic Basic.rack[9].node[0].app 	"End-to-End Delay"
field count 163077
field mean 9.4762880029862e-005
field stddev 0.00016507767760088
field sum 15.45364618663
field sqrsum 0.0059083573298828
field min 8.496e-007
field max 0.000646855782
statistic Basic.rack[9].node[0].app 	hops
field count 163077
field mean 5.289298920142
field stddev 0.99934811451602
field sum 862563
field sqrsum 4725217
field min 4
field max 7
statistic Basic.rack[9].node[1].app 	throughput
field count 164164
field mean 82082.5
field stddev 47390.20913297
field sum 13474991530
field sqrsum 1.4747434980178e+015
field min 1
field max 164164
statistic Basic.rack[9].node[1].app 	"End-to-End Delay"
field count 164164
field mean 9.5040285824727e-005
field stddev 0.00016522671366083
field sum 15.60219348213
field sqrsum 0.0059644649791141
field min 8.496e-007
field max 0.000582041947
statistic Basic.rack[9].node[1].app 	hops
field count 164164
field mean 5.2928900367925
field stddev 0.9991781045572
field sum 868902
field sqrsum 4762896
field min 4
field max 7
statistic Basic.rack[9].node[2].app 	throughput
field count 163015
field mean 81508
field stddev 47058.521403319
field sum 13287026620
field sqrsum 1.4439941919817e+015
field min 1
field max 163015
statistic Basic.rack[9].node[2].app 	"End-to-End Delay"
field count 163015
field mean 9.5086429340373e-005
field stddev 0.00016519536395777
field sum 15.500514278921
field sqrsum 0.0059224604573598
field min 8.496e-007
field max 0.000634442755
statistic Basic.rack[9].node[2].app 	hops
field count 163015
field mean 5.2958255375272
field stddev 1.0003438048565
field sum 863299
field sqrsum 4735007
field min 4
field max 7
statistic Basic.rack[9].node[3].app 	throughput
field count 163490
field mean 81745.5
field stddev 47195.642092253
field sum 13364571795
field sqrsum 1.456653683367e+015
field min 1
field max 163490
statistic Basic.rack[9].node[3].app 	"End-to-End Delay"
field count 163490
field mean 9.4075410313332e-005
field stddev 0.00016443267154525
field sum 15.380388832127
field sqrsum 0.0058673488886145
field min 8.496e-007
field max 0.000647808567
statistic Basic.rack[9].node[3].app 	hops
field count 163490
field mean 5.2909719248884
field stddev 0.99949884548782
field sum 865021
field sqrsum 4740127
field min 4
field max 7
statistic Basic.rack[9].node[4].app 	throughput
field count 162850
field mean 81425.5
field stddev 47010.890006111
field sum 13260142675
field sqrsum 1.4396139097967e+015
field min 1
field max 162850
statistic Basic.rack[9].node[4].app 	"End-to-End Delay"
field count 162850
field mean 9.4589887613097e-005
field stddev 0.00016483934948479
field sum 15.403963197793
field sqrsum 0.0058819939895805
field min 8.496e-007
field max 0.000631868633
statistic Basic.rack[9].node[4].app 	hops
field count 162850
field mean 5.2926251151366
field stddev 1.0015286008724
field sum 861904
field sqrsum 4725082
field min 4
field max 7
statistic Basic.rack[9].node[5].app 	throughput
field count 163265
field mean 81633
field stddev 47130.690186968
field sum 13327811745
field sqrsum 1.4506478989689e+015
field min 1
field max 163265
statistic Basic.rack[9].node[5].app 	"End-to-End Delay"
field count 163265
field mean 9.5076848698438e-005
field stddev 0.00016521189550337
field sum 15.52272170275
field sqrsum 0.005932137512688
field min 8.496e-007
field max 0.000636770908
statistic Basic.rack[9].node[5].app 	hops
field count 163265
field mean 5.2951826784675
field stddev 1.0010201002161
field sum 864518
field sqrsum 4741378
field min 4
field max 7
statistic Basic.rack[9].node[6].app 	throughput
field count 163325
field mean 81663
field stddev 47148.010695044
field sum 13337609475
field sqrsum 1.4522478242061e+015
field min 1
field max 163325
statistic Basic.rack[9].node[6].app 	"End-to-End Delay"
field count 163325
field mean 9.5036601151935e-005
field stddev 0.00016532730956839
field sum 15.52185288314
field sqrsum 0.0059392985163705
field min 8.496e-007
field max 0.000620153222
statistic Basic.rack[9].node[6].app 	hops
field count 163325
field mean 5.2925883973672
field stddev 0.99926829741248
field sum 864412
field sqrsum 4738062
field min 4
field max 7
statistic Basic.rack[9].node[7].app 	throughput
field count 163766
field mean 81883.5
field stddev 47275.316429401
field sum 13409733261
field sqrsum 1.4640433880584e+015
field min 1
field max 163766
statistic Basic.rack[9].node[7].app 	"End-to-End Delay"
field count 163766
field mean 9.4730691416465e-005
field stddev 0.00016490336304172
field sum 15.513666410509
field sqrsum 0.0059229015018382
field min 8.496e-007
field max 0.000608936273
statistic Basic.rack[9].node[7].app 	hops
field count 163766
field mean 5.2938583100277
field stddev 1.001084389573
field sum 866954
field sqrsum 4753652
field min 4
field max 7
statistic Basic.rack[9].node[8].app 	throughput
field count 163165
field mean 81583
field stddev 47101.822673509
field sum 13311490195
field sqrsum 1.4479839689415e+015
field min 1
field max 163165
statistic Basic.rack[9].node[8].app 	"End-to-End Delay"
field count 163165
field mean 9.5167567660655e-005
field stddev 0.00016530298494663
field sum 15.528016177351
field sqrsum 0.0059362323664534
field min 8.496e-007
field max 0.000637165602
statistic Basic.rack[9].node[8].app 	hops
field count 163165
field mean 5.2936352771734
field stddev 1.0003267351151
field sum 863736
field sqrsum 4735574
field min 4
field max 7
statistic Basic.rack[9].node[9].app 	throughput
field count 164340
field mean 82170.5
field stddev 47441.015956659
field sum 13503899970
field sqrsum 1.4794917820132e+015
field min 1
field max 164340
statistic Basic.rack[9].node[9].app 	"End-to-End Delay"
field count 164340
field mean 9.4180418367892e-005
field stddev 0.00016448477509252
field sum 15.477609954579
field sqrsum 0.0059039190705434
field min 8.496e-007
field max 0.000612316532
statistic Basic.rack[9].node[9].app 	hops
field count 164340
field mean 5.2975355969332
field stddev 1.0009956218962
field sum 870597
field sqrsum 4776685
field min 4
field max 7
statistic Basic.rack[9].eps.queue[0] 	dropsum
field count 0
field mean nan
field stddev nan
field sum 0
field sqrsum 0
field min nan
field max nan
statistic Basic.rack[9].eps.queue[1] 	dropsum
field count 0
field mean nan
field stddev nan
field sum 0
field sqrsum 0
field min nan
field max nan
statistic Basic.rack[9].eps.queue[2] 	dropsum
field count 0
field mean nan
field stddev nan
field sum 0
field sqrsum 0
field min nan
field max nan
statistic Basic.rack[9].eps.queue[3] 	dropsum
field count 0
field mean nan
field stddev nan
field sum 0
field sqrsum 0
field min nan
field max nan
statistic Basic.rack[10].node[0].app 	throughput
field count 106989
field mean 53495
field stddev 30885.208312394
field sum 5723376555
field sqrsum 4.0822746395412e+014
field min 1
field max 106989
statistic Basic.rack[10].node[0].app 	"End-to-End Delay"
field count 106989
field mean 0.00031774308310442
field stddev 0.00021587847271841
field sum 33.995014718259
field sqrsum 0.015787697647786
field min 8.496e-007
field max 0.001004548835
statistic Basic.rack[10].node[0].app 	hops
field count 106989
field mean 4.8460402471282
field stddev 0.88646839407506
field sum 518473
field sqrsum 2596615
field min 3
field max 7
statistic Basic.rack[10].node[1].app 	throughput
field count 107323
field mean 53662
field stddev 30981.62580735
field sum 5759166826
field sqrsum 4.1206262723347e+014
field min 1
field max 107323
statistic Basic.rack[10].node[1].app 	"End-to-End Delay"
field count 107323
field mean 0.0003156953825566
field stddev 0.00021644224830072
field sum 33.881375542122
field sqrsum 0.015723934039693
field min 8.496e-007
field max 0.001015930714
statistic Basic.rack[10].node[1].app 	hops
field count 107323
field mean 4.8468455037597
field stddev 0.88397986073799
field sum 520178
field sqrsum 2605086
field min 3
field max 7
statistic Basic.rack[10].node[2].app 	throughput
field count 106994
field mean 53497.5
field stddev 30886.651688067
field sum 5723911515
field sqrsum 4.0828470039444e+014
field min 1
field max 106994
statistic Basic.rack[10].node[2].app 	"End-to-End Delay"
field count 106994
field mean 0.00031584806462929
field stddev 0.00021671432117282
field sum 33.793847826947
field sqrsum 0.015698658055988
field min 8.496e-007
field max 0.000956818005
statistic Basic.rack[10].node[2].app 	hops
field count 106994
field mean 4.8437202086098
field stddev 0.88763763398835
field sum 518249
field sqrsum 2594553
field min 3
field max 7
statistic Basic.rack[10].node[3].app 	throughput
field count 107445
field mean 53723
field stddev 31016.844173771
field sum 5772267735
field sqrsum 4.134694619473e+014
field min 1
field max 107445
statistic Basic.rack[10].node[3].app 	"End-to-End Delay"
field count 107445
field mean 0.00031640180245243
field stddev 0.00021631492250267
field sum 33.995791664501
field sqrsum 0.01578386506075
field min 8.496e-007
field max 0.001005355667
statistic Basic.rack[10].node[3].app 	hops
field count 107445
field mean 4.8478942714877
field stddev 0.88567442994034
field sum 520882
field sqrsum 2609462
field min 3
field max 7
statistic Basic.rack[10].node[4].app 	throughput
field count 107194
field mean 53597.5
field stddev 30944.386714987
field sum 5745330415
field sqrsum 4.1057854744714e+014
field min 1
field max 107194
statistic Basic.rack[10].node[4].app 	"End-to-End Delay"
field count 107194
field mean 0.00031646077169332
field stddev 0.00021610533337135
field sum 33.922695960894
field sqrsum 0.015741278051054
field min 8.496e-007
field max 0.000965041839
statistic Basic.rack[10].node[4].app 	hops
field count 107194
field mean 4.8450472974234
field stddev 0.88493674093762
field sum 519360
field sqrsum 2600268
field min 3
field max 7
statistic Basic.rack[10].node[5].app 	throughput
field count 106779
field mean 53390
field stddev 30824.586534129
field sum 5700930810
field sqrsum 4.0582836095093e+014
field min 1
field max 106779
statistic Basic.rack[10].node[5].app 	"End-to-End Delay"
field count 106779
field mean 0.00031672416280076
field stddev 0.00021555862737422
field sum 33.819489379702
field sqrsum 0.015672944950682
field min 8.496e-007
field max 0.000997627663
statistic Basic.rack[10].node[5].app 	hops
field count 106779
field mean 4.8472452448515
field stddev 0.88736839234867
field sum 517584
field sqrsum 2592936
field min 3
field max 7
statistic Basic.rack[10].node[6].app 	throughput
field count 106901
field mean 53451
field stddev 30859.80490055
field sum 5713965351
field sqrsum 4.0722097797995e+014
field min 1
field max 106901
statistic Basic.rack[10].node[6].app 	"End-to-End Delay"
field count 106901
field mean 0.00031762851190763
field stddev 0.00021582691127483
field sum 33.954805551438
field sqrsum 0.015764550586309
field min 8.496e-007
field max 0.001019582756
statistic Basic.rack[10].node[6].app 	hops
field count 106901
field mean 4.8485514635036
field stddev 0.88656983005056
field sum 518315
field sqrsum 2597101
field min 3
field max 7
statistic Basic.rack[10].node[7].app 	throughput
field count 107577
field mean 53789
field stddev 31054.949291538
field sum 5786459253
field sqrsum 4.149952135264e+014
field min 1
field max 107577
statistic Basic.rack[10].node[7].app 	"End-to-End Delay"
field count 107577
field mean 0.00031699301585348
field stddev 0.00021701880494768
field sum 34.10115766647
field sqrsum 0.015876353079928
field min 8.496e-007
field max 0.000974810428
statistic Basic.rack[10].node[7].app 	hops
field count 107577
field mean 4.8483783708414
field stddev 0.88812294176948
field sum 521574
field sqrsum 2613640
field min 3
field max 7
statistic Basic.rack[10].node[8].app 	throughput
field count 107385
field mean 53693
field stddev 30999.523665695
field sum 5765822805
field sqrsum 4.1277717655088e+014
field min 1
field max 107385
statistic Basic.rack[10].node[8].app 	"End-to-End Delay"
field count 107385
field mean 0.00031649798620447
field stddev 0.00021648737574173
field sum 33.987136248567
field sqrsum 0.015789602897072
field min 8.496e-007
field max 0.001035652276
statistic Basic.rack[10].node[8].app 	hops
field count 107385
field mean 4.8486660148065
field stddev 0.88866390086833
field sum 520674
field sqrsum 2609378
field min 3
field max 7
statistic Basic.rack[10].node[9].app 	throughput
field count 107178
field mean 53589.5
field stddev 30939.767912833
field sum 5743615431
field sqrsum 4.1039472431429e+014
field min 1
field max 107178
statistic Basic.rack[10].node[9].app 	"End-to-End Delay"
field count 107178
field mean 0.00031584568871965
field stddev 0.00021734330525945
field sum 33.851709225595
field sqrsum 0.015754755581077
field min 8.496e-007
field max 0.000990059053
statistic Basic.rack[10].node[9].app 	hops
field count 107178
field mean 4.8460225046185
field stddev 0.88589675503379
field sum 519387
field sqrsum 2601075
field min 3
field max 7
statistic Basic.rack[10].eps.queue[0] 	dropsum
field count 0
field mean nan
field stddev nan
field sum 0
field sqrsum 0
field min nan
field max nan
statistic Basic.rack[10].eps.queue[1] 	dropsum
field count 1291386
field mean 645693.5
field stddev 372791.17170177
field sum 833839546191
field sqrsum 7.1787275541181e+017
field min 1
field max 1291386
statistic Basic.rack[10].eps.queue[2] 	dropsum
field count 0
field mean nan
field stddev nan
field sum 0
field sqrsum 0
field min nan
field max nan
statistic Basic.rack[10].eps.queue[3] 	dropsum
field count 0
field mean nan
field stddev nan
field sum 0
field sqrsum 0
field min nan
field max nan
statistic Basic.rack[11].node[0].app 	throughput
field count 111820
field mean 55910.5
field stddev 32279.797887637
field sum 6251912110
field sqrsum 4.6606129206417e+014
field min 1
field max 111820
statistic Basic.rack[11].node[0].app 	"End-to-End Delay"
field count 111820
field mean 0.00035774558089799
field stddev 0.00025888220969045
field sum 40.003110856013
field sqrsum 0.021805045342536
field min 8.496e-007
field max 0.001037150177
statistic Basic.rack[11].node[0].app 	hops
field count 111820
field mean 5.0003756036487
field stddev 0.98180982333662
field sum 559142
field sqrsum 2903708
field min 3
field max 7
statistic Basic.rack[11].node[1].app 	throughput
field count 111754
field mean 55877.5
field stddev 32260.745328753
field sum 6244534135
field sqrsum 4.652365266599e+014
field min 1
field max 111754
statistic Basic.rack[11].node[1].app 	"End-to-End Delay"
field count 111754
field mean 0.00035602927697181
field stddev 0.00025883019193144
field sum 39.787695818708
field sqrsum 0.021652260931439
field min 8.496e-007
field max 0.001008724133
statistic Basic.rack[11].node[1].app 	hops
field count 111754
field mean 4.9904164504179
field stddev 0.98609490750742
field sum 557699
field sqrsum 2891817
field min 3
field max 7
statistic Basic.rack[11].node[2].app 	throughput
field count 111694
field mean 55847.5
[...]
field stddev 46982.311167786
field sum 13244025376
field sqrsum 1.4369899973214e+015
field min 1
field max 162751
statistic Basic.rack[13].node[2].app 	"End-to-End Delay"
field count 162751
field mean 9.2945935808586e-005
field stddev 0.00016340075074099
field sum 15.127043998783
field sqrsum 0.0057513905800124
field min 8.496e-007
field max 0.000589189687
statistic Basic.rack[13].node[2].app 	hops
field count 162751
field mean 5.2995127526098
field stddev 1.000128874526
field sum 862501
field sqrsum 4733627
field min 4
field max 7
statistic Basic.rack[13].node[3].app 	throughput
field count 163419
field mean 81710
field stddev 47175.146157696
field sum 13352966490
field sqrsum 1.4547567382084e+015
field min 1
field max 163419
statistic Basic.rack[13].node[3].app 	"End-to-End Delay"
field count 163419
field mean 9.2841061220759e-005
field stddev 0.00016345351963786
field sum 15.171993383635
field sqrsum 0.005774631347126
field min 8.496e-007
field max 0.000614803185
statistic Basic.rack[13].node[3].app 	hops
field count 163419
field mean 5.2968504274289
field stddev 1.0022935944702
field sum 865606
field sqrsum 4749154
field min 4
field max 7
statistic Basic.rack[13].node[4].app 	throughput
field count 162658
field mean 81329.5
field stddev 46955.464380269
field sum 13228893811
field sqrsum 1.434528015971e+015
field min 1
field max 162658
statistic Basic.rack[13].node[4].app 	"End-to-End Delay"
field count 162658
field mean 9.2928466389117e-005
field stddev 0.00016341123704151
field sum 15.115558485921
field sqrsum 0.0057481333398055
field min 8.496e-007
field max 0.000593871986
statistic Basic.rack[13].node[4].app 	hops
field count 162658
field mean 5.2975445413075
field stddev 1.0000628274459
field sum 861688
field sqrsum 4727508
field min 4
field max 7
statistic Basic.rack[13].node[5].app 	throughput
field count 162805
field mean 81403
field stddev 46997.899625054
field sum 13252815415
field sqrsum 1.4384208266979e+015
field min 1
field max 162805
statistic Basic.rack[13].node[5].app 	"End-to-End Delay"
field count 162805
field mean 9.2643475297511e-005
field stddev 0.00016333060826718
field sum 15.082820995811
field sqrsum 0.0057404289626725
field min 8.496e-007
field max 0.000588378074
statistic Basic.rack[13].node[5].app 	hops
field count 162805
field mean 5.2920180584134
field stddev 1.0005553526187
field sum 861567
field sqrsum 4722413
field min 4
field max 7
statistic Basic.rack[13].node[6].app 	throughput
field count 163353
field mean 81677
field stddev 47156.093598813
field sum 13342182981
field sqrsum 1.4529948583912e+015
field min 1
field max 163353
statistic Basic.rack[13].node[6].app 	"End-to-End Delay"
field count 163353
field mean 9.29639984175e-005
field stddev 0.00016352981702196
field sum 15.185948033494
field sqrsum 0.005780105805329
field min 8.496e-007
field max 0.000599984325
statistic Basic.rack[13].node[6].app 	hops
field count 163353
field mean 5.2996516745943
field stddev 1.0011604700147
field sum 865714
field sqrsum 4751714
field min 4
field max 7
statistic Basic.rack[13].node[7].app 	throughput
field count 162741
field mean 81371
field stddev 46979.42441644
field sum 13242397911
field sqrsum 1.4367251330887e+015
field min 1
field max 162741
statistic Basic.rack[13].node[7].app 	"End-to-End Delay"
field count 162741
field mean 9.3161806283549e-005
field stddev 0.00016368909850325
field sum 15.161245516391
field sqrsum 0.0057729242642791
field min 8.496e-007
field max 0.000628767823
statistic Basic.rack[13].node[7].app 	hops
field count 162741
field mean 5.295309725269
field stddev 1.0028247859873
field sum 861764
field sqrsum 4726968
field min 4
field max 7
statistic Basic.rack[13].node[8].app 	throughput
field count 162802
field mean 81401.5
field stddev 46997.03359965
field sum 13252327003
field sqrsum 1.4383413112706e+015
field min 1
field max 162802
statistic Basic.rack[13].node[8].app 	"End-to-End Delay"
field count 162802
field mean 9.2720279265557e-005
field stddev 0.00016335837275987
field sum 15.095046904991
field sqrsum 0.0057441176048981
field min 8.496e-007
field max 0.000621359185
statistic Basic.rack[13].node[8].app 	hops
field count 162802
field mean 5.295942310291
field stddev 1.0011433795177
field sum 862190
field sqrsum 4729282
field min 4
field max 7
statistic Basic.rack[13].node[9].app 	throughput
field count 163351
field mean 81676
field stddev 47155.516248544
field sum 13341856276
field sqrsum 1.4529414903127e+015
field min 1
field max 163351
statistic Basic.rack[13].node[9].app 	"End-to-End Delay"
field count 163351
field mean 9.3469667096124e-005
field stddev 0.00016395105351049
field sum 15.268363589819
field sqrsum 0.0058179683590182
field min 8.496e-007
field max 0.000625007641
statistic Basic.rack[13].node[9].app 	hops
field count 163351
field mean 5.3009225532748
field stddev 1.0021154574649
field sum 865911
field sqrsum 4754169
field min 4
field max 7
statistic Basic.rack[13].eps.queue[0] 	dropsum
field count 0
field mean nan
field stddev nan
field sum 0
field sqrsum 0
field min nan
field max nan
statistic Basic.rack[13].eps.queue[1] 	dropsum
field count 0
field mean nan
field stddev nan
field sum 0
field sqrsum 0
field min nan
field max nan
statistic Basic.rack[13].eps.queue[2] 	dropsum
field count 0
field mean nan
field stddev nan
field sum 0
field sqrsum 0
field min nan
field max nan
statistic Basic.rack[13].eps.queue[3] 	dropsum
field count 0
field mean nan
field stddev nan
field sum 0
field sqrsum 0
field min nan
field max nan
statistic Basic.rack[14].node[0].app 	throughput
field count 108765
field mean 54383
field stddev 31397.89535144
field sum 5914966995
field sqrsum 4.2889622846312e+014
field min 1
field max 108765
statistic Basic.rack[14].node[0].app 	"End-to-End Delay"
field count 108765
field mean 0.00033604897767555
field stddev 0.00024094049762683
field sum 36.550367056882
field sqrsum 0.018596716385046
field min 8.496e-007
field max 0.001054521307
statistic Basic.rack[14].node[0].app 	hops
field count 108765
field mean 4.915432354158
field stddev 0.94026540350646
field sum 534627
field sqrsum 2724081
field min 3
field max 7
statistic Basic.rack[14].node[1].app 	throughput
field count 108673
field mean 54337
field stddev 31371.337239057
field sum 5904964801
field sqrsum 4.2780879486765e+014
field min 1
field max 108673
statistic Basic.rack[14].node[1].app 	"End-to-End Delay"
field count 108673
field mean 0.00033698158609162
field stddev 0.00024078862143097
field sum 36.620799905334
field sqrsum 0.018641246534453
field min 8.496e-007
field max 0.000993757954
statistic Basic.rack[14].node[1].app 	hops
field count 108673
field mean 4.9139068581892
field stddev 0.94216064016059
field sum 534009
field sqrsum 2720535
field min 3
field max 7
statistic Basic.rack[14].node[2].app 	throughput
field count 108458
field mean 54229.5
field stddev 31309.272085119
field sum 5881623111
field sqrsum 4.2527468012293e+014
field min 1
field max 108458
statistic Basic.rack[14].node[2].app 	"End-to-End Delay"
field count 108458
field mean 0.00033595246582386
field stddev 0.00024064302952273
field sum 36.436732538325
field sqrsum 0.018521653893785
field min 8.496e-007
field max 0.001052305865
statistic Basic.rack[14].node[2].app 	hops
field count 108458
field mean 4.9134319275664
field stddev 0.94077264869855
field sum 532901
field sqrsum 2714363
field min 3
field max 7
statistic Basic.rack[14].node[3].app 	throughput
field count 108151
field mean 54076
field stddev 31220.648818797
field sum 5848373476
field sqrsum 4.2167357599308e+014
field min 1
field max 108151
statistic Basic.rack[14].node[3].app 	"End-to-End Delay"
field count 108151
field mean 0.00033650625178209
field stddev 0.00024106357440409
field sum 36.393487636485
field sqrsum 0.018531410726551
field min 8.496e-007
field max 0.001023554319
statistic Basic.rack[14].node[3].app 	hops
field count 108151
field mean 4.9144806797903
field stddev 0.9400329117864
field sum 531506
field sqrsum 2707644
field min 3
field max 7
statistic Basic.rack[14].node[4].app 	throughput
field count 108271
field mean 54136
field stddev 31255.289834949
field sum 5861358856
field sqrsum 4.2307874358494e+014
field min 1
field max 108271
statistic Basic.rack[14].node[4].app 	"End-to-End Delay"
field count 108271
field mean 0.00033653652056753
field stddev 0.00024076080338263
field sum 36.437145618367
field sqrsum 0.018538383522327
field min 8.496e-007
field max 0.001045138177
statistic Basic.rack[14].node[4].app 	hops
field count 108271
field mean 4.9210961383935
field stddev 0.93996832289672
field sum 532812
field sqrsum 2717680
field min 3
field max 7
statistic Basic.rack[14].node[5].app 	throughput
field count 108700
field mean 54350.5
field stddev 31379.131467691
field sum 5907899350
field sqrsum 4.2812774219645e+014
field min 1
field max 108700
statistic Basic.rack[14].node[5].app 	"End-to-End Delay"
field count 108700
field mean 0.00033631451423704
field stddev 0.00024127898613166
field sum 36.557387697566
field sqrsum 0.018622752062199
field min 8.496e-007
field max 0.000990056048
statistic Basic.rack[14].node[5].app 	hops
field count 108700
field mean 4.9174609015639
field stddev 0.9402007223021
field sum 534528
field sqrsum 2724608
field min 3
field max 7
statistic Basic.rack[14].node[6].app 	throughput
field count 108737
field mean 54369
field stddev 31389.812447672
field sum 5911921953
field sqrsum 4.2856507557622e+014
field min 1
field max 108737
statistic Basic.rack[14].node[6].app 	"End-to-End Delay"
field count 108737
field mean 0.00033665214954312
field stddev 0.00024117641355232
field sum 36.606544784871
field sqrsum 0.018648416956167
field min 8.496e-007
field max 0.001007206642
statistic Basic.rack[14].node[6].app 	hops
field count 108737
field mean 4.9160911189384
field stddev 0.94075932042486
field sum 534561
field sqrsum 2724185
field min 3
field max 7
statistic Basic.rack[14].node[7].app 	throughput
field count 108469
field mean 54235
field stddev 31312.447511599
field sum 5882816215
field sqrsum 4.254040889553e+014
field min 1
field max 108469
statistic Basic.rack[14].node[7].app 	"End-to-End Delay"
field count 108469
field mean 0.0003359630350365
field stddev 0.00024136671212539
field sum 36.441574447374
field sqrsum 0.018562138735238
field min 8.496e-007
field max 0.001017415179
statistic Basic.rack[14].node[7].app 	hops
field count 108469
field mean 4.9168057232942
field stddev 0.93782471775376
field sum 533321
field sqrsum 2717635
field min 3
field max 7
statistic Basic.rack[14].node[8].app 	throughput
field count 108760
field mean 54380.5
field stddev 31396.451975767
field sum 5914423180
field sqrsum 4.2883708151226e+014
field min 1
field max 108760
statistic Basic.rack[14].node[8].app 	"End-to-End Delay"
field count 108760
field mean 0.00033648911352491
field stddev 0.00024122695720495
field sum 36.59655598697
field sqrsum 0.01864307727708
field min 8.496e-007
field max 0.001016751569
statistic Basic.rack[14].node[8].app 	hops
field count 108760
field mean 4.915373299007
field stddev 0.94126899893197
field sum 534596
field sqrsum 2724098
field min 3
field max 7
statistic Basic.rack[14].node[9].app 	throughput
field count 108704
field mean 54352.5
field stddev 31380.28616823
field sum 5908334160
field sqrsum 4.2817500713048e+014
field min 1
field max 108704
statistic Basic.rack[14].node[9].app 	"End-to-End Delay"
field count 108704
field mean 0.00033559361318106
field stddev 0.00024146778422641
field sum 36.480368127234
field sqrsum 0.018580690762114
field min 8.496e-007
field max 0.001050066351
statistic Basic.rack[14].node[9].app 	hops
field count 108704
field mean 4.9161668383868
field stddev 0.94085621698491
field sum 534407
field sqrsum 2723459
field min 3
field max 7
statistic Basic.rack[14].eps.queue[0] 	dropsum
field count 0
field mean nan
field stddev nan
field sum 0
field sqrsum 0
field min nan
field max nan
statistic Basic.rack[14].eps.queue[1] 	dropsum
field count 1271129
field mean 635565
field stddev 366943.47950024
field sum 807885102885
field sqrsum 6.8461772459208e+017
field min 1
field max 1271129
statistic Basic.rack[14].eps.queue[2] 	dropsum
field count 0
field mean nan
field stddev nan
field sum 0
field sqrsum 0
field min nan
field max nan
statistic Basic.rack[14].eps.queue[3] 	dropsum
field count 0
field mean nan
field stddev nan
field sum 0
field sqrsum 0
field min nan
field max nan
statistic Basic.rack[15].node[0].app 	throughput
field count 108502
field mean 54251.5
field stddev 31321.973791041
field sum 5886396253
field sqrsum 4.2579247296076e+014
field min 1
field max 108502
statistic Basic.rack[15].node[0].app 	"End-to-End Delay"
field count 108502
field mean 0.00032950306129114
field stddev 0.0002326132982075
field sum 35.751741156212
field sqrsum 0.017651182961979
field min 8.496e-007
field max 0.000996403742
statistic Basic.rack[15].node[0].app 	hops
field count 108502
field mean 4.8913015428287
field stddev 0.9218152830985
field sum 530716
field sqrsum 2688090
field min 3
field max 7
statistic Basic.rack[15].node[1].app 	throughput
field count 108621
field mean 54311
field stddev 31356.326132058
field sum 5899315131
field sqrsum 4.2719497233461e+014
field min 1
field max 108621
statistic Basic.rack[15].node[1].app 	"End-to-End Delay"
field count 108621
field mean 0.00032924046902944
field stddev 0.00023248871565529
field sum 35.762428986447
field sqrsum 0.017645458828893
field min 8.496e-007
field max 0.001002046815
statistic Basic.rack[15].node[1].app 	hops
field count 108621
field mean 4.8958764879719
field stddev 0.91887049638504
field sum 531795
field sqrsum 2695313
field min 3
field max 7
statistic Basic.rack[15].node[2].app 	throughput
field count 108906
field mean 54453.5
field stddev 31438.598545419
field sum 5930312871
field sqrsum 4.3056641245704e+014
field min 1
field max 108906
statistic Basic.rack[15].node[2].app 	"End-to-End Delay"
field count 108906
field mean 0.00032951319115375
field stddev 0.00023241490068056
field sum 35.88596359579
field sqrsum 0.017707585577261
field min 8.496e-007
field max 0.001036242038
statistic Basic.rack[15].node[2].app 	hops
field count 108906
field mean 4.8911997502433
field stddev 0.92004308521023
field sum 532681
field sqrsum 2697635
field min 3
field max 7
statistic Basic.rack[15].node[3].app 	throughput
field count 108904
field mean 54452.5
field stddev 31438.021195149
field sum 5930095060
field sqrsum 4.3054269164118e+014
field min 1
field max 108904
statistic Basic.rack[15].node[3].app 	"End-to-End Delay"
field count 108904
field mean 0.00032985390255477
field stddev 0.00023269690207317
field sum 35.922409403825
field sqrsum 0.017746010047298
field min 8.496e-007
field max 0.00103369578
statistic Basic.rack[15].node[3].app 	hops
field count 108904
field mean 4.8958807757291
field stddev 0.91996453155456
field sum 533181
field sqrsum 2702559
field min 3
field max 7
statistic Basic.rack[15].node[4].app 	throughput
field count 107759
field mean 53880
field stddev 31107.488166035
field sum 5806054920
field sqrsum 4.1710505010116e+014
field min 1
field max 107759
statistic Basic.rack[15].node[4].app 	"End-to-End Delay"
field count 107759
field mean 0.00032864551285191
field stddev 0.00023222423214657
field sum 35.414511819409
field sqrsum 0.017450003952118
field min 8.496e-007
field max 0.001013882813
statistic Basic.rack[15].node[4].app 	hops
field count 107759
field mean 4.8918883805529
field stddev 0.91946588093478
field sum 527145
field sqrsum 2669835
field min 3
field max 7
statistic Basic.rack[15].node[5].app 	throughput
field count 109301
field mean 54651
field stddev 31552.625223585
field sum 5973408951
field sqrsum 4.3526837230515e+014
field min 1
field max 109301
statistic Basic.rack[15].node[5].app 	"End-to-End Delay"
field count 109301
field mean 0.00032938872180401
field stddev 0.00023263955017564
field sum 36.002516681901
field sqrsum 0.017774265773016
field min 8.496e-007
field max 0.001060052642
statistic Basic.rack[15].node[5].app 	hops
field count 109301
field mean 4.8955270308597
field stddev 0.92299099686138
field sum 535086
field sqrsum 2712642
field min 3
field max 7
statistic Basic.rack[15].node[6].app 	throughput
field count 108303
field mean 54152
field stddev 31264.527439256
field sum 5864824056
field sqrsum 4.2345398143266e+014
field min 1
field max 108303
statistic Basic.rack[15].node[6].app 	"End-to-End Delay"
field count 108303
field mean 0.00032966098188588
field stddev 0.00023268060073723
field sum 35.703273321186
field sqrsum 0.017633474790333
field min 8.496e-007
field max 0.001010878976
statistic Basic.rack[15].node[6].app 	hops
field count 108303
field mean 4.8942596234638
field stddev 0.92322728994934
field sum 530063
field sqrsum 2686577
field min 3
field max 7
statistic Basic.rack[15].node[7].app 	throughput
field count 108406
field mean 54203.5
field stddev 31294.26097812
field sum 5875984621
field sqrsum 4.2466328454429e+014
field min 1
field max 108406
statistic Basic.rack[15].node[7].app 	"End-to-End Delay"
field count 108406
field mean 0.00032874194311325
field stddev 0.00023193886446236
field sum 35.637599085136
field sqrsum 0.017547289583656
field min 8.496e-007
field max 0.001057231846
statistic Basic.rack[15].node[7].app 	hops
field count 108406
field mean 4.8901813552755
field stddev 0.92003818649307
field sum 530125
field sqrsum 2684169
field min 3
field max 7
statistic Basic.rack[15].node[8].app 	throughput
field count 107963
field mean 53982
field stddev 31166.377893493
field sum 5828058666
field sqrsum 4.1947840785779e+014
field min 1
field max 107963
statistic Basic.rack[15].node[8].app 	"End-to-End Delay"
field count 107963
field mean 0.00033042786264258
field stddev 0.00023182443900475
field sum 35.673983334481
field sqrsum 0.017589833463626
field min 8.496e-007
field max 0.001004660479
statistic Basic.rack[15].node[8].app 	hops
field count 107963
field mean 4.8974648722247
field stddev 0.92070398074222
field sum 528745
field sqrsum 2681029
field min 3
field max 7
statistic Basic.rack[15].node[9].app 	throughput
field count 108799
field mean 54400
field stddev 31407.710306017
field sum 5918665600
field sqrsum 4.292985719648e+014
field min 1
field max 108799
statistic Basic.rack[15].node[9].app 	"End-to-End Delay"
field count 108799
field mean 0.00032970797192898
field stddev 0.00023241135305591
field sum 35.871897637902
field sqrsum 0.017703978618148
field min 8.496e-007
field max 0.001025818418
statistic Basic.rack[15].node[9].app 	hops
field count 108799
field mean 4.896552358018
field stddev 0.92011023753706
field sum 532740
field sqrsum 2700698
field min 3
field max 7
statistic Basic.rack[15].eps.queue[0] 	dropsum
field count 1280396
field mean 640198.5
field stddev 369618.63197255
field sum 819707598606
field sqrsum 6.9970049351935e+017
field min 1
field max 1280396
statistic Basic.rack[15].eps.queue[1] 	dropsum
field count 0
field mean nan
field stddev nan
field sum 0
field sqrsum 0
field min nan
field max nan
statistic Basic.rack[15].eps.queue[2] 	dropsum
field count 0
field mean nan
field stddev nan
field sum 0
field sqrsum 0
field min nan
field max nan
statistic Basic.rack[15].eps.queue[3] 	dropsum
field count 0
field mean nan
field stddev nan
field sum 0
field sqrsum 0
field min nan
field max nan
