version 2
run Basic-1-20180510-15:55:33-23752
attr configname Basic
attr datetime 20180510-15:55:33
attr experiment Basic
attr inifile omnetpp.ini
attr iterationvars "$0=exponential(0.5 ms), $1=4, $2=3"
attr iterationvarsf exponential(0.5_ms),4,3-
attr measurement "$0=exponential(0.5 ms), $1=4, $2=3"
attr network Networks.Basic
attr processid 23752
attr repetition 0
attr replication #0
attr resultdir results
attr runnumber 1
attr seedset 1
param **.frameCapacity 50
param **.packetLength "1024 bytes"
param **.pattern 4
param **.sendIaTime "exponential(0.5 ms)"
param **.tp 3

statistic Basic.rack[0].node[0].app 	throughput
field count 19978
field mean 9989.5
field stddev 5767.2961746963
field sum 199570231
field sqrsum 2658075906689
field min 1
field max 19978
statistic Basic.rack[0].node[0].app 	"End-to-End Delay"
field count 19978
field mean 1.2505108180946e-005
field stddev 8.2006961317928e-006
field sum 0.24982705123894
field sqrsum 4.4675958605978e-006
field min 8.496e-007
field max 5.4301343e-005
statistic Basic.rack[0].node[0].app 	hops
field count 19978
field mean 4.7563820202222
field stddev 0.8307582366465
field sum 95023
field sqrsum 465753
field min 4
field max 6
statistic Basic.rack[0].node[1].app 	throughput
field count 20155
field mean 10078
field stddev 5818.3916735355
field sum 203122090
field sqrsum 2729351523330
field min 1
field max 20155
statistic Basic.rack[0].node[1].app 	"End-to-End Delay"
field count 20155
field mean 1.2535214595433e-005
field stddev 8.1935942436592e-006
field sum 0.25264725017095
field sqrsum 4.5200260183743e-006
field min 8.496e-007
field max 5.0961355e-005
statistic Basic.rack[0].node[1].app 	hops
field count 20155
field mean 4.7522202927313
field stddev 0.82941686031098
field sum 95781
field sqrsum 469037
field min 4
field max 6
statistic Basic.rack[0].node[2].app 	throughput
field count 19914
field mean 9957.5
field stddev 5748.8209660764
field sum 198293655
field sqrsum 2632612661665
field min 1
field max 19914
statistic Basic.rack[0].node[2].app 	"End-to-End Delay"
field count 19914
field mean 1.249596974706e-005
field stddev 8.2380484665514e-006
field sum 0.24884474154294
field sqrsum 4.4609609192798e-006
field min 8.496e-007
field max 5.114425e-005
statistic Basic.rack[0].node[2].app 	hops
field count 19914
field mean 4.7497740283218
field stddev 0.83084838779141
field sum 94587
field sqrsum 463013
field min 4
field max 6
statistic Basic.rack[0].node[3].app 	throughput
field count 19881
field mean 9941
field stddev 5739.2946866318
field sum 197637021
field sqrsum 2619546955341
field min 1
field max 19881
statistic Basic.rack[0].node[3].app 	"End-to-End Delay"
field count 19881
field mean 1.2441374715203e-005
field stddev 8.2087709657429e-006
field sum 0.24734697071295
field sqrsum 4.4169286921783e-006
field min 8.496e-007
field max 4.7630632e-005
statistic Basic.rack[0].node[3].app 	hops
field count 19881
field mean 4.7528293345405
field stddev 0.82781752738662
field sum 94491
field sqrsum 462723
field min 4
field max 6
statistic Basic.rack[0].node[4].app 	throughput
field count 19998
field mean 9999.5
field stddev 5773.06967739
field sum 199970001
field sqrsum 2666066709999
field min 1
field max 19998
statistic Basic.rack[0].node[4].app 	"End-to-End Delay"
field count 19998
field mean 1.2553765975395e-005
field stddev 8.18824069777e-006
field sum 0.25105021197595
field sqrsum 4.4923701818545e-006
field min 8.496e-007
field max 5.1232476e-005
statistic Basic.rack[0].node[4].app 	hops
field count 19998
field mean 4.7514251425143
field stddev 0.83094541921559
field sum 95019
field sqrsum 465283
field min 4
field max 6
statistic Basic.rack[0].node[5].app 	throughput
field count 20131
field mean 10066
field stddev 5811.463470303
field sum 202638646
field sqrsum 2719613267966
field min 1
field max 20131
statistic Basic.rack[0].node[5].app 	"End-to-End Delay"
field count 20131
field mean 1.2538985224725e-005
field stddev 8.2403362216968e-006
field sum 0.25242231155895
field sqrsum 4.5320098642969e-006
field min 8.496e-007
field max 6.0121399e-005
statistic Basic.rack[0].node[5].app 	hops
field count 20131
field mean 4.7551537429835
field stddev 0.83055631076615
field sum 95726
field sqrsum 469078
field min 4
field max 6
statistic Basic.rack[0].node[6].app 	throughput
field count 20253
field mean 10127
field stddev 5846.6818367344
field sum 205102131
field sqrsum 2769357340139
field min 1
field max 20253
statistic Basic.rack[0].node[6].app 	"End-to-End Delay"
field count 20253
field mean 1.2484681757515e-005
field stddev 8.2218572614289e-006
field sum 0.25285225963495
field sqrsum 4.5257936618375e-006
field min 8.496e-007
field max 5.1214523e-005
statistic Basic.rack[0].node[6].app 	hops
field count 20253
field mean 4.7560855181948
field stddev 0.82998392705675
field sum 96325
field sqrsum 472081
field min 4
field max 6
statistic Basic.rack[0].node[7].app 	throughput
field count 19761
field mean 9881
field stddev 5704.6536704694
field sum 195258441
field sqrsum 2572399787881
field min 1
field max 19761
statistic Basic.rack[0].node[7].app 	"End-to-End Delay"
field count 19761
field mean 1.2569574727693e-005
field stddev 8.1892061883286e-006
field sum 0.24838736619394
field sqrsum 4.4472903771701e-006
field min 8.496e-007
field max 5.2462056e-005
statistic Basic.rack[0].node[7].app 	hops
field count 19761
field mean 4.7534537725824
field stddev 0.83037071558715
field sum 93933
field sqrsum 460131
field min 4
field max 6
statistic Basic.rack[0].node[8].app 	throughput
field count 20050
field mean 10025.5
field stddev 5788.0807843936
field sum 201011275
field sqrsum 2686917712925
field min 1
field max 20050
statistic Basic.rack[0].node[8].app 	"End-to-End Delay"
field count 20050
field mean 1.2403161014461e-005
field stddev 8.2080147048646e-006
field sum 0.24868337833994
field sqrsum 4.4351912948403e-006
field min 8.496e-007
field max 5.2579458e-005
statistic Basic.rack[0].node[8].app 	hops
field count 20050
field mean 4.742144638404
field stddev 0.82684303165709
field sum 95080
field sqrsum 464590
field min 4
field max 6
statistic Basic.rack[0].node[9].app 	throughput
field count 19948
field mean 9974.5
field stddev 5758.6359206557
field sum 198971326
field sqrsum 2646119664474
field min 1
field max 19948
statistic Basic.rack[0].node[9].app 	"End-to-End Delay"
field count 19948
field mean 1.2630804123067e-005
field stddev 8.2469130718465e-006
field sum 0.25195928064695
field sqrsum 4.539075211646e-006
field min 8.496e-007
field max 6.4634178e-005
statistic Basic.rack[0].node[9].app 	hops
field count 19948
field mean 4.7550130338881
field stddev 0.83290203999171
field sum 94853
field sqrsum 464865
field min 4
field max 6
statistic Basic.rack[0].eps.queue[0] 	dropsum
field count 0
field mean nan
field stddev nan
field sum 0
field sqrsum 0
field min nan
field max nan
statistic Basic.rack[0].eps.queue[1] 	dropsum
field count 0
field mean nan
field stddev nan
field sum 0
field sqrsum 0
field min nan
field max nan
statistic Basic.rack[0].eps.queue[2] 	dropsum
field count 0
field mean nan
field stddev nan
field sum 0
field sqrsum 0
field min nan
field max nan
statistic Basic.rack[0].eps.queue[3] 	dropsum
field count 0
field mean nan
field stddev nan
field sum 0
field sqrsum 0
field min nan
field max nan
statistic Basic.rack[1].node[0].app 	throughput
field count 20182
field mean 10091.5
field stddev 5826.1859021719
field sum 203666653
field sqrsum 2740334816115
field min 1
field max 20182
statistic Basic.rack[1].node[0].app 	"End-to-End Delay"
field count 20182
field mean 1.2443753583736e-005
field stddev 1.0453024028273e-005
field sum 0.25113983482696
field sqrsum 5.3302135401116e-006
field min 8.496e-007
field max 7.1739248e-005
statistic Basic.rack[1].node[0].app 	hops
field count 20182
field mean 4.7496779308295
field stddev 0.43320922167966
field sum 95858
field sqrsum 459082
field min 4
field max 5
statistic Basic.rack[1].node[1].app 	throughput
field count 19802
field mean 9901.5
field stddev 5716.4893509916
field sum 196069503
field sqrsum 2588444222105
field min 1
field max 19802
statistic Basic.rack[1].node[1].app 	"End-to-End Delay"
field count 19802
field mean 1.2345640374152e-005
field stddev 1.0355826907369e-005
field sum 0.24446837068896
field sqrsum 5.1416402190522e-006
field min 8.496e-007
field max 5.6221749e-005
statistic Basic.rack[1].node[1].app 	hops
field count 19802
field mean 4.7480557519442
field stddev 0.43414037136609
field sum 94021
field sqrsum 450149
field min 4
field max 5
statistic Basic.rack[1].node[2].app 	throughput
field count 20037
field mean 10019
field stddev 5784.3280076427
field sum 200750703
field sqrsum 2681694807575
field min 1
field max 20037
statistic Basic.rack[1].node[2].app 	"End-to-End Delay"
field count 20037
field mean 1.244379873409e-005
field stddev 1.0454615612637e-005
field sum 0.24933639523496
field sqrsum 5.2926064351011e-006
field min 8.496e-007
field max 6.7229122e-005
statistic Basic.rack[1].node[2].app 	hops
field count 20037
field mean 4.7512601686879
field stddev 0.43229348162951
field sum 95201
field sqrsum 456069
field min 4
field max 5
statistic Basic.rack[1].node[3].app 	throughput
field count 19826
field mean 9913.5
field stddev 5723.417554224
field sum 196545051
field sqrsum 2597866969101
field min 1
field max 19826
statistic Basic.rack[1].node[3].app 	"End-to-End Delay"
field count 19826
field mean 1.2457558881214e-005
field stddev 1.0461984925476e-005
field sum 0.24698356237896
field sqrsum 5.2467205451442e-006
field min 8.496e-007
field max 6.6049762e-005
statistic Basic.rack[1].node[3].app 	hops
field count 19826
field mean 4.7486633713306
field stddev 0.43379259921584
field sum 94147
field sqrsum 450803
field min 4
field max 5
statistic Basic.rack[1].node[4].app 	throughput
field count 19782
field mean 9891.5
field stddev 5710.7158482978
field sum 195673653
field sqrsum 2580609360315
field min 1
field max 19782
statistic Basic.rack[1].node[4].app 	"End-to-End Delay"
field count 19782
field mean 1.2235786350367e-005
field stddev 1.0313856131139e-005
field sum 0.24204832558296
field sqrsum 5.0658679015774e-006
field min 8.496e-007
field max 5.8480107e-005
statistic Basic.rack[1].node[4].app 	hops
field count 19782
field mean 4.7461833990496
field stddev 0.43520490410856
field sum 93889
field sqrsum 449361
field min 4
field max 5
statistic Basic.rack[1].node[5].app 	throughput
field count 19906
field mean 9953.5
field stddev 5746.5115649989
field sum 198134371
field sqrsum 2629441237541
field min 1
field max 19906
statistic Basic.rack[1].node[5].app 	"End-to-End Delay"
field count 19906
field mean 1.2454473679944e-005
field stddev 1.0393100851057e-005
field sum 0.24791875307296
field sqrsum 5.2377669191127e-006
field min 8.496e-007
field max 6.3147045e-005
statistic Basic.rack[1].node[5].app 	hops
field count 19906
field mean 4.7540440068321
field stddev 0.43066339516167
field sum 94634
field sqrsum 453586
field min 4
field max 5
statistic Basic.rack[1].node[6].app 	throughput
field count 20183
field mean 10092
field stddev 5826.4745773066
field sum 203686836
field sqrsum 2740742169604
field min 1
field max 20183
statistic Basic.rack[1].node[6].app 	"End-to-End Delay"
field count 20183
field mean 1.245002889813e-005
field stddev 1.0465193964485e-005
field sum 0.25127893325096
field sqrsum 5.3387683665694e-006
field min 8.496e-007
field max 6.3148077e-005
statistic Basic.rack[1].node[6].app 	hops
field count 20183
field mean 4.7496903334489
field stddev 0.4332020723705
field sum 95863
field sqrsum 459107
field min 4
field max 5
statistic Basic.rack[1].node[7].app 	throughput
field count 19880
field mean 9940.5
field stddev 5739.0060114971
field sum 197617140
field sqrsum 2619151701180
field min 1
field max 19880
statistic Basic.rack[1].node[7].app 	"End-to-End Delay"
field count 19880
field mean 1.2376308663127e-005
field stddev 1.0403413194082e-005
field sum 0.24604101622296
field sqrsum 5.196603730564e-006
field min 8.496e-007
field max 5.9603145e-005
statistic Basic.rack[1].node[7].app 	hops
field count 19880
field mean 4.7485412474849
field stddev 0.43386255536331
field sum 94401
field sqrsum 452009
field min 4
field max 5
statistic Basic.rack[1].node[8].app 	throughput
field count 19989
field mean 9995
field stddev 5770.4716011778
field sum 199790055
field sqrsum 2662468869615
field min 1
field max 19989
statistic Basic.rack[1].node[8].app 	"End-to-End Delay"
field count 19989
field mean 1.2405799212465e-005
field stddev 1.0437088456785e-005
field sum 0.24797952045796
field sqrsum 5.2537332549145e-006
field min 8.496e-007
field max 6.2194922e-005
statistic Basic.rack[1].node[8].app 	hops
field count 19989
field mean 4.7487618190005
field stddev 0.433736059064
field sum 94923
field sqrsum 454527
field min 4
field max 5
statistic Basic.rack[1].node[9].app 	throughput
field count 19979
field mean 9990
field stddev 5767.584849831
field sum 199590210
field sqrsum 2658475067130
field min 1
field max 19979
statistic Basic.rack[1].node[9].app 	"End-to-End Delay"
field count 19979
field mean 1.2615457648829e-005
field stddev 1.0450114563397e-005
field sum 0.25204422836595
field sqrsum 5.3613486686683e-006
field min 8.496e-007
field max 6.9513532e-005
statistic Basic.rack[1].node[9].app 	hops
field count 19979
field mean 4.7582962110216
field stddev 0.42812643181301
field sum 95066
field sqrsum 456014
field min 4
field max 5
statistic Basic.rack[1].eps.queue[0] 	dropsum
field count 0
field mean nan
field stddev nan
field sum 0
field sqrsum 0
field min nan
field max nan
statistic Basic.rack[1].eps.queue[1] 	dropsum
field count 0
field mean nan
field stddev nan
field sum 0
field sqrsum 0
field min nan
field max nan
statistic Basic.rack[1].eps.queue[2] 	dropsum
field count 0
field mean nan
field stddev nan
field sum 0
field sqrsum 0
field min nan
field max nan
statistic Basic.rack[1].eps.queue[3] 	dropsum
field count 0
field mean nan
field stddev nan
field sum 0
field sqrsum 0
field min nan
field max nan
statistic Basic.rack[2].node[0].app 	throughput
field count 20163
field mean 10082
field stddev 5820.7010746129
field sum 203283366
field sqrsum 2732602766894
field min 1
field max 20163
statistic Basic.rack[2].node[0].app 	"End-to-End Delay"
field count 20163
field mean 1.067436168571e-005
field stddev 7.5333238951097e-006
field sum 0.21522715466897
field sqrsum 3.4416255286586e-006
field min 8.496e-007
field max 5.5145131e-005
statistic Basic.rack[2].node[0].app 	hops
field count 20163
field mean 4.9995040420572
field stddev 0.70686106572263
field sum 100805
field sqrsum 514049
field min 4
field max 6
statistic Basic.rack[2].node[1].app 	throughput
field count 19884
field mean 9942.5
field stddev 5740.1607120359
field sum 197696670
field sqrsum 2620732956410
field min 1
field max 19884
statistic Basic.rack[2].node[1].app 	"End-to-End Delay"
field count 19884
field mean 1.0638629822871e-005
field stddev 7.5610929093186e-006
field sum 0.21153851539797
field sqrsum 3.3871935735257e-006
field min 8.496e-007
field max 5.8158804e-005
statistic Basic.rack[2].node[1].app 	hops
field count 19884
field mean 4.9929591631462
field stddev 0.70900737596884
field sum 99280
field sqrsum 505696
field min 4
field max 6
statistic Basic.rack[2].node[2].app 	throughput
field count 19973
field mean 9987
field stddev 5765.8527990229
field sum 199470351
field sqrsum 2656080703799
field min 1
field max 19973
statistic Basic.rack[2].node[2].app 	"End-to-End Delay"
field count 19973
field mean 1.0807423732387e-005
field stddev 7.5952242980677e-006
field sum 0.21585667420697
field sqrsum 3.4849879382779e-006
field min 8.496e-007
field max 5.6553068e-005
statistic Basic.rack[2].node[2].app 	hops
field count 19973
field mean 5.0101637210234
field stddev 0.70791838940381
field sum 100068
field sqrsum 511366
field min 4
field max 6
statistic Basic.rack[2].node[3].app 	throughput
field count 20046
field mean 10023.5
field stddev 5786.9260838549
field sum 200931081
field sqrsum 2685309943511
field min 1
field max 20046
statistic Basic.rack[2].node[3].app 	"End-to-End Delay"
field count 20046
field mean 1.070699859957e-005
field stddev 7.5701283100816e-006
field sum 0.21463249392697
field sqrsum 3.4467854724386e-006
field min 8.496e-007
field max 5.4963348e-005
statistic Basic.rack[2].node[3].app 	hops
field count 20046
field mean 4.9984535568193
field stddev 0.7079688258192
field sum 100199
field sqrsum 510887
field min 4
field max 6
statistic Basic.rack[2].node[4].app 	throughput
field count 19838
field mean 9919.5
field stddev 5726.8816558403
field sum 196783041
field sqrsum 2602586905919
field min 1
field max 19838
statistic Basic.rack[2].node[4].app 	"End-to-End Delay"
field count 19838
field mean 1.0713378078232e-005
field stddev 7.5251747302873e-006
field sum 0.21253199431597
field sqrsum 3.4002702977352e-006
field min 8.496e-007
field max 5.5910792e-005
statistic Basic.rack[2].node[4].app 	hops
field count 19838
field mean 5.0017138824478
field stddev 0.70900919800032
field sum 99224
field sqrsum 506262
field min 4
field max 6
statistic Basic.rack[2].node[5].app 	throughput
field count 20027
field mean 10014
field stddev 5781.4412562959
field sum 200550378
field sqrsum 2677681796930
field min 1
field max 20027
statistic Basic.rack[2].node[5].app 	"End-to-End Delay"
field count 20027
field mean 1.0652469530732e-005
field stddev 7.4873327612313e-006
field sum 0.21333700729197
field sqrsum 3.3952265714522e-006
field min 8.496e-007
field max 5.5228275e-005
statistic Basic.rack[2].node[5].app 	hops
field count 20027
field mean 4.9958056623558
field stddev 0.70358996105587
field sum 100051
field sqrsum 509749
field min 4
field max 6
statistic Basic.rack[2].node[6].app 	throughput
field count 20010
field mean 10005.5
field stddev 5776.5337790062
field sum 200210055
field sqrsum 2670868870385
field min 1
field max 20010
statistic Basic.rack[2].node[6].app 	"End-to-End Delay"
field count 20010
field mean 1.063177757761e-005
field stddev 7.5177263749876e-006
field sum 0.21274186932797
field sqrsum 3.3926570790122e-006
field min 8.496e-007
field max 7.1332194e-005
statistic Basic.rack[2].node[6].app 	hops
field count 20010
field mean 4.9954522738631
field stddev 0.7088040818126
field sum 99959
field sqrsum 509393
field min 4
field max 6
statistic Basic.rack[2].node[7].app 	throughput
field count 20070
field mean 10035.5
field stddev 5793.8542870873
field sum 201412485
field sqrsum 2694966186795
field min 1
field max 20070
statistic Basic.rack[2].node[7].app 	"End-to-End Delay"
field count 20070
field mean 1.0712011037517e-005
field stddev 7.5509112626803e-006
field sum 0.21499006152297
field sqrsum 3.4472352519299e-006
field min 8.496e-007
field max 6.0243078e-005
statistic Basic.rack[2].node[7].app 	hops
field count 20070
field mean 5.0030891878426
field stddev 0.70813867652374
field sum 100412
field sqrsum 512434
field min 4
field max 6
statistic Basic.rack[2].node[8].app 	throughput
field count 20216
field mean 10108.5
field stddev 5836.0008567511
field sum 204353436
field sqrsum 2754207492596
field min 1
field max 20216
statistic Basic.rack[2].node[8].app 	"End-to-End Delay"
field count 20216
field mean 1.0672845081419e-005
field stddev 7.5771781439464e-006
field sum 0.21576223616597
field sqrsum 3.4634134236763e-006
field min 8.496e-007
field max 5.5917872e-005
statistic Basic.rack[2].node[8].app 	hops
field count 20216
field mean 4.9980213692125
field stddev 0.70949605895205
field sum 101040
field sqrsum 515176
field min 4
field max 6
statistic Basic.rack[2].node[9].app 	throughput
field count 19923
field mean 9962
field stddev 5751.4190422886
field sum 198472926
field sqrsum 2636183560774
field min 1
field max 19923
statistic Basic.rack[2].node[9].app 	"End-to-End Delay"
field count 19923
field mean 1.063587798479e-005
field stddev 7.5230538035217e-006
field sum 0.21189859709097
field sqrsum 3.381239880016e-006
field min 8.496e-007
field max 5.327137e-005
statistic Basic.rack[2].node[9].app 	hops
field count 19923
field mean 4.9955328012849
field stddev 0.70886517145916
field sum 99526
field sqrsum 507196
field min 4
field max 6
statistic Basic.rack[2].eps.queue[0] 	dropsum
field count 0
field mean nan
field stddev nan
field sum 0
field sqrsum 0
field min nan
field max nan
statistic Basic.rack[2].eps.queue[1] 	dropsum
field count 0
field mean nan
field stddev nan
field sum 0
field sqrsum 0
field min nan
field max nan
statistic Basic.rack[2].eps.queue[2] 	dropsum
field count 0
field mean nan
field stddev nan
field sum 0
field sqrsum 0
field min nan
field max nan
statistic Basic.rack[2].eps.queue[3] 	dropsum
field count 0
field mean nan
field stddev nan
field sum 0
field sqrsum 0
field min nan
field max nan
statistic Basic.rack[3].node[0].app 	throughput
field count 19949
field mean 9975
field stddev 5758.9245957904
field sum 198991275
field sqrsum 2646517627075
field min 1
field max 19949
statistic Basic.rack[3].node[0].app 	"End-to-End Delay"
field count 19949
field mean 1.7762526943905e-005
field stddev 8.4521952666729e-006
field sum 0.35434465000397
field sqrsum 7.7191336301927e-006
field min 8.992e-006
field max 8.5435659e-005
statistic Basic.rack[3].node[0].app 	hops
field count 19949
field mean 4.2419670158905
field stddev 0.83418253278863
field sum 84623
field sqrsum 372849
field min 3
field max 5
statistic Basic.rack[3].node[1].app 	throughput
field count 20065
field mean 10033
field stddev 5792.4109114139
field sum 201312145
field sqrsum 2692952563665
field min 1
field max 20065
statistic Basic.rack[3].node[1].app 	"End-to-End Delay"
field count 20065
field mean 1.7771009476201e-005
field stddev 8.3445882892887e-006
field sum 0.35657530513997
field sqrsum 7.7338026588142e-006
field min 8.992e-006
field max 7.0564568e-005
statistic Basic.rack[3].node[1].app 	hops
field count 20065
field mean 4.2579616247197
field stddev 0.82839818454392
field sum 85436
field sqrsum 377552
field min 3
field max 5
statistic Basic.rack[3].node[2].app 	throughput
field count 20180
field mean 10090.5
field stddev 5825.6085519025
field sum 203626290
field sqrsum 2739520230230
field min 1
field max 20180
statistic Basic.rack[3].node[2].app 	"End-to-End Delay"
field count 20180
field mean 1.7749547263031e-005
field stddev 8.3543825518396e-006
field sum 0.35818586376797
field sqrsum 7.7660445060491e-006
field min 8.992e-006
field max 6.2993243e-005
statistic Basic.rack[3].node[2].app 	hops
field count 20180
field mean 4.2427651139742
field stddev 0.83060820542139
field sum 85619
field sqrsum 377183
field min 3
field max 5
statistic Basic.rack[3].node[3].app 	throughput
field count 20221
field mean 10111
field stddev 5837.4442324246
field sum 204454531
field sqrsum 2756251532411
field min 1
field max 20221
statistic Basic.rack[3].node[3].app 	"End-to-End Delay"
field count 20221
field mean 1.7767025050243e-005
field stddev 8.3209084717207e-006
field sum 0.35926701354097
field sqrsum 7.7830886391185e-006
field min 8.992e-006
field max 7.3136816e-005
statistic Basic.rack[3].node[3].app 	hops
field count 20221
field mean 4.2482567627714
field stddev 0.82773842047136
field sum 85904
field sqrsum 378796
field min 3
field max 5
statistic Basic.rack[3].node[4].app 	throughput
field count 20007
field mean 10004
field stddev 5775.6677536022
field sum 200150028
field sqrsum 2669667790140
field min 1
field max 20007
statistic Basic.rack[3].node[4].app 	"End-to-End Delay"
field count 20007
field mean 1.774145045394e-005
field stddev 8.3470100804448e-006
field sum 0.35495319923197
field sqrsum 7.6912541787659e-006
field min 8.992e-006
field max 7.3197342e-005
statistic Basic.rack[3].node[4].app 	hops
field count 20007
field mean 4.2629579647124
field stddev 0.82666431833838
field sum 85289
field sqrsum 377255
field min 3
field max 5
statistic Basic.rack[3].node[5].app 	throughput
field count 20214
field mean 10107.5
field stddev 5835.4235064818
field sum 204313005
field sqrsum 2753390159715
field min 1
field max 20214
statistic Basic.rack[3].node[5].app 	"End-to-End Delay"
field count 20214
field mean 1.7739800302066e-005
field stddev 8.3229501541262e-006
field sum 0.35859232330597
field sqrsum 7.7615410200074e-006
field min 8.992e-006
field max 6.6431708e-005
statistic Basic.rack[3].node[5].app 	hops
field count 20214
field mean 4.2535866231325
field stddev 0.82783284938967
field sum 85982
field sqrsum 379584
field min 3
field max 5
statistic Basic.rack[3].node[6].app 	throughput
field count 20025
field mean 10013
field stddev 5780.8639060265
field sum 200510325
field sqrsum 2676879675525
field min 1
field max 20025
statistic Basic.rack[3].node[6].app 	"End-to-End Delay"
field count 20025
field mean 1.7778905966191e-005
field stddev 8.4284881356135e-006
field sum 0.35602259197297
field sqrsum 7.7521853754645e-006
field min 8.992e-006
field max 6.9527323e-005
statistic Basic.rack[3].node[6].app 	hops
field count 20025
field mean 4.2500873907615
field stddev 0.82912795969323
field sum 85108
field sqrsum 375482
field min 3
field max 5
statistic Basic.rack[3].node[7].app 	throughput
field count 20180
field mean 10090.5
field stddev 5825.6085519025
field sum 203626290
field sqrsum 2739520230230
field min 1
field max 20180
statistic Basic.rack[3].node[7].app 	"End-to-End Delay"
field count 20180
field mean 1.7697305991723e-005
field stddev 8.3345888646386e-006
field sum 0.35713163491297
field sqrsum 7.7220095547364e-006
field min 8.992e-006
field max 6.1346185e-005
statistic Basic.rack[3].node[7].app 	hops
field count 20180
field mean 4.2490089197225
field stddev 0.82923591379248
field sum 85745
field sqrsum 378207
field min 3
field max 5
statistic Basic.rack[3].node[8].app 	throughput
field count 20109
field mean 10055
field stddev 5805.11261734
field sum 202195995
field sqrsum 2710706907635
field min 1
field max 20109
statistic Basic.rack[3].node[8].app 	"End-to-End Delay"
field count 20109
field mean 1.7750555955839e-005
field stddev 8.4236373569173e-006
field sum 0.35694592971597
field sqrsum 7.762805453012e-006
field min 8.992e-006
field max 6.5654323e-005
statistic Basic.rack[3].node[8].app 	hops
field count 20109
field mean 4.2470535581083
field stddev 0.8332363225473
field sum 85404
field sqrsum 376676
field min 3
field max 5
statistic Basic.rack[3].node[9].app 	throughput
field count 19856
field mean 9928.5
field stddev 5732.0778082646
field sum 197140296
field sqrsum 2609677525016
field min 1
field max 19856
statistic Basic.rack[3].node[9].app 	"End-to-End Delay"
field count 19856
field mean 1.7715921874142e-005
field stddev 8.3858959238626e-006
field sum 0.35176734473297
field sqrsum 7.6281509347663e-006
field min 8.992e-006
field max 7.0100246e-005
statistic Basic.rack[3].node[9].app 	hops
field count 19856
field mean 4.2515108783239
field stddev 0.8279903999595
field sum 84418
field sqrsum 372516
field min 3
field max 5
statistic Basic.rack[3].eps.queue[0] 	dropsum
field count 0
field mean nan
field stddev nan
field sum 0
field sqrsum 0
field min nan
field max nan
statistic Basic.rack[3].eps.queue[1] 	dropsum
field count 0
field mean nan
field stddev nan
field sum 0
field sqrsum 0
field min nan
field max nan
statistic Basic.rack[3].eps.queue[2] 	dropsum
field count 0
field mean nan
field stddev nan
field sum 0
field sqrsum 0
field min nan
field max nan
statistic Basic.rack[3].eps.queue[3] 	dropsum
field count 0
field mean nan
field stddev nan
field sum 0
field sqrsum 0
field min nan
field max nan
statistic Basic.rack[4].node[0].app 	throughput
field count 20189
field mean 10095
field stddev 5828.2066281147
field sum 203807955
field sqrsum 2743187138315
field min 1
field max 20189
statistic Basic.rack[4].node[0].app 	"End-to-End Delay"
field count 20189
field mean 1.2495469736785e-005
field stddev 8.1907105415116e-006
field sum 0.25227103851595
field sqrsum 4.5066124057047e-006
field min 8.496e-007
field max 5.6343443e-005
statistic Basic.rack[4].node[0].app 	hops
field count 20189
field mean 4.7595720441825
field stddev 0.82950598636644
field sum 96091
field sqrsum 471243
field min 4
field max 6
statistic Basic.rack[4].node[1].app 	throughput
field count 20140
field mean 10070.5
field stddev 5814.0615465152
field sum 202819870
field sqrsum 2723262394490
field min 1
field max 20140
statistic Basic.rack[4].node[1].app 	"End-to-End Delay"
field count 20140
field mean 1.2488989047018e-005
field stddev 8.2082738701528e-006
field sum 0.25152823940695
field sqrsum 4.4982138561477e-006
field min 8.496e-007
field max 5.596589e-005
statistic Basic.rack[4].node[1].app 	hops
field count 20140
field mean 4.7509433962264
field stddev 0.82799268065186
field sum 95684
field sqrsum 468396
field min 4
field max 6
statistic Basic.rack[4].node[2].app 	throughput
field count 20199
field mean 10100
field stddev 5831.0933794615
field sum 204009900
field sqrsum 2747265316700
field min 1
field max 20199
statistic Basic.rack[4].node[2].app 	"End-to-End Delay"
field count 20199
field mean 1.2394978451851e-005
field stddev 8.2146500955314e-006
field sum 0.25036616974894
field sqrsum 4.466253937237e-006
field min 8.496e-007
field max 5.5554903e-005
statistic Basic.rack[4].node[2].app 	hops
field count 20199
field mean 4.748650923313
field stddev 0.82888075628072
field sum 95918
field sqrsum 469358
field min 4
field max 6
statistic Basic.rack[4].node[3].app 	throughput
field count 19729
field mean 9865
field stddev 5695.4160661594
field sum 194626585
field sqrsum 2559923472505
field min 1
field max 19729
statistic Basic.rack[4].node[3].app 	"End-to-End Delay"
field count 19729
field mean 1.2529787104463e-005
field stddev 8.2470956325778e-006
field sum 0.24720016978395
field sqrsum 4.4391572595441e-006
field min 8.496e-007
field max 4.9111314e-005
statistic Basic.rack[4].node[3].app 	hops
field count 19729
field mean 4.7477824522277
field stddev 0.83001057392829
field sum 93669
field sqrsum 458311
field min 4
field max 6
statistic Basic.rack[4].node[4].app 	throughput
field count 19857
field mean 9929
field stddev 5732.3664833993
field sum 197160153
field sqrsum 2610071825465
field min 1
field max 19857
statistic Basic.rack[4].node[4].app 	"End-to-End Delay"
field count 19857
field mean 1.2502544234776e-005
field stddev 8.2319950040222e-006
field sum 0.24826302086995
field sqrsum 4.4494759683991e-006
field min 8.496e-007
field max 5.890028e-005
statistic Basic.rack[4].node[4].app 	hops
field count 19857
field mean 4.7441708213728
field stddev 0.82646068078174
field sum 94205
field sqrsum 460487
field min 4
field max 6
statistic Basic.rack[4].node[5].app 	throughput
field count 20123
field mean 10062
field stddev 5809.1540692256
field sum 202477626
field sqrsum 2716372337874
field min 1
field max 20123
statistic Basic.rack[4].node[5].app 	"End-to-End Delay"
field count 20123
field mean 1.2508504646968e-005
field stddev 8.2661337597633e-006
field sum 0.25170863901095
field sqrsum 4.5234141614513e-006
field min 8.496e-007
field max 5.8833066e-005
statistic Basic.rack[4].node[5].app 	hops
field count 20123
field mean 4.754460070566
field stddev 0.82921350130457
field sum 95674
field sqrsum 468714
field min 4
field max 6
statistic Basic.rack[4].node[6].app 	throughput
field count 19608
field mean 9804.5
field stddev 5660.4863748621
field sum 192246636
field sqrsum 2513112108004
field min 1
field max 19608
statistic Basic.rack[4].node[6].app 	"End-to-End Delay"
field count 19608
field mean 1.2415276523865e-005
field stddev 8.2390255719904e-006
field sum 0.24343874207995
field sqrsum 4.3533127009089e-006
field min 8.496e-007
field max 5.3391467e-005
statistic Basic.rack[4].node[6].app 	hops
field count 19608
field mean 4.7461240310078
field stddev 0.82929129314029
field sum 93062
field sqrsum 455168
field min 4
field max 6
statistic Basic.rack[4].node[7].app 	throughput
field count 19838
field mean 9919.5
field stddev 5726.8816558403
field sum 196783041
field sqrsum 2602586905919
field min 1
field max 19838
statistic Basic.rack[4].node[7].app 	"End-to-End Delay"
field count 19838
field mean 1.2540672762221e-005
field stddev 8.2027630614199e-006
field sum 0.24878186625694
field sqrsum 4.4546309032787e-006
field min 8.496e-007
field max 5.3124119e-005
statistic Basic.rack[4].node[7].app 	hops
field count 19838
field mean 4.7603589071479
field stddev 0.83148781950188
field sum 94436
field sqrsum 463264
field min 4
field max 6
statistic Basic.rack[4].node[8].app 	throughput
field count 19947
field mean 9974
field stddev 5758.3472455211
field sum 198951378
field sqrsum 2645721741770
field min 1
field max 19947
statistic Basic.rack[4].node[8].app 	"End-to-End Delay"
field count 19947
field mean 1.2490370083819e-005
field stddev 8.2120882903916e-006
field sum 0.24914541206194
field sqrsum 4.4570446098423e-006
field min 8.496e-007
field max 4.7376811e-005
statistic Basic.rack[4].node[8].app 	hops
field count 19947
field mean 4.7452248458415
field stddev 0.82698741552032
field sum 94653
field sqrsum 462791
field min 4
field max 6
statistic Basic.rack[4].node[9].app 	throughput
field count 19998
field mean 9999.5
field stddev 5773.06967739
field sum 199970001
field sqrsum 2666066709999
field min 1
field max 19998
statistic Basic.rack[4].node[9].app 	"End-to-End Delay"
field count 19998
field mean 1.2506485417289e-005
field stddev 8.2059969338898e-006
field sum 0.25010469537494
field sqrsum 4.4744964239253e-006
field min 8.496e-007
field max 5.490845e-005
statistic Basic.rack[4].node[9].app 	hops
field count 19998
field mean 4.7476747674767
field stddev 0.8296635432955
field sum 94944
field sqrsum 464528
field min 4
field max 6
statistic Basic.rack[4].eps.queue[0] 	dropsum
field count 0
field mean nan
field stddev nan
field sum 0
field sqrsum 0
field min nan
field max nan
statistic Basic.rack[4].eps.queue[1] 	dropsum
field count 0
field mean nan
field stddev nan
field sum 0
field sqrsum 0
field min nan
field max nan
statistic Basic.rack[4].eps.queue[2] 	dropsum
field count 0
field mean nan
field stddev nan
field sum 0
field sqrsum 0
field min nan
field max nan
statistic Basic.rack[4].eps.queue[3] 	dropsum
field count 0
field mean nan
field stddev nan
field sum 0
field sqrsum 0
field min nan
field max nan
statistic Basic.rack[5].node[0].app 	throughput
field count 20035
field mean 10018
field stddev 5783.7506573734
field sum 200710630
field sqrsum 2680891884910
field min 1
field max 20035
statistic Basic.rack[5].node[0].app 	"End-to-End Delay"
field count 20035
field mean 1.2420858500372e-005
field stddev 1.0356162997424e-005
field sum 0.24885190005495
field sqrsum 5.2396029825245e-006
field min 8.496e-007
field max 6.3913911e-005
statistic Basic.rack[5].node[0].app 	hops
field count 20035
field mean 4.7530321936611
field stddev 0.43125861374062
field sum 95227
field sqrsum 456343
field min 4
field max 5
statistic Basic.rack[5].node[1].app 	throughput
field count 20000
field mean 10000.5
field stddev 5773.6470276594
field sum 200010000
field sqrsum 2666866670000
field min 1
field max 20000
statistic Basic.rack[5].node[1].app 	"End-to-End Delay"
field count 20000
field mean 1.2509041212348e-005
field stddev 1.0475338327242e-005
field sum 0.25018082424696
field sqrsum 5.3240667697349e-006
field min 8.496e-007
field max 5.9433825e-005
statistic Basic.rack[5].node[1].app 	hops
field count 20000
field mean 4.75365
field stddev 0.43089553379915
field sum 95073
field sqrsum 455657
field min 4
field max 5
statistic Basic.rack[5].node[2].app 	throughput
field count 20116
field mean 10058.5
field stddev 5807.1333432828
field sum 202336786
field sqrsum 2713538637046
field min 1
field max 20116
statistic Basic.rack[5].node[2].app 	"End-to-End Delay"
field count 20116
field mean 1.2504667967039e-005
field stddev 1.0471341804232e-005
field sum 0.25154390082495
field sqrsum 5.3510625774768e-006
field min 8.496e-007
field max 5.6808299e-005
statistic Basic.rack[5].node[2].app 	hops
field count 20116
field mean 4.7518890435474
field stddev 0.43192729018807
field sum 95589
field sqrsum 457981
field min 4
field max 5
statistic Basic.rack[5].node[3].app 	throughput
field count 20041
field mean 10021
field stddev 5785.4827081815
field sum 200830861
field sqrsum 2683301133821
field min 1
field max 20041
statistic Basic.rack[5].node[3].app 	"End-to-End Delay"
field count 20041
field mean 1.2462433981985e-005
field stddev 1.0407339316155e-005
field sum 0.24975963943296
field sqrsum 5.2831997590947e-006
field min 8.496e-007
field max 6.2120662e-005
statistic Basic.rack[5].node[3].app 	hops
field count 20041
field mean 4.7536550072352
field stddev 0.43089256402558
field sum 95268
field sqrsum 456592
field min 4
field max 5
statistic Basic.rack[5].node[4].app 	throughput
field count 19754
field mean 9877.5
field stddev 5702.6329445266
field sum 195120135
field sqrsum 2569667137905
field min 1
field max 19754
statistic Basic.rack[5].node[4].app 	"End-to-End Delay"
field count 19754
field mean 1.2474551319832e-005
field stddev 1.0458904076719e-005
field sum 0.24642228677196
field sqrsum 5.234761949809e-006
field min 8.496e-007
field max 6.9821653e-005
statistic Basic.rack[5].node[4].app 	hops
field count 19754
field mean 4.7505315379164
field stddev 0.43271633580138
field sum 93842
field sqrsum 449498
field min 4
field max 5
statistic Basic.rack[5].node[5].app 	throughput
field count 20091
field mean 10046
field stddev 5799.9164649157
field sum 201834186
field sqrsum 2703434365346
field min 1
field max 20091
statistic Basic.rack[5].node[5].app 	"End-to-End Delay"
field count 20091
field mean 1.2476398807275e-005
field stddev 1.0435137657117e-005
field sum 0.25066332843695
field sqrsum 5.3150178992111e-006
field min 8.496e-007
field max 6.0722525e-005
statistic Basic.rack[5].node[5].app 	hops
field count 20091
field mean 4.7520780448957
field stddev 0.43181702183877
field sum 95474
field sqrsum 457446
field min 4
field max 5
statistic Basic.rack[5].node[6].app 	throughput
field count 20018
field mean 10009.5
field stddev 5778.8431800837
field sum 200370171
field sqrsum 2674073512109
field min 1
field max 20018
statistic Basic.rack[5].node[6].app 	"End-to-End Delay"
field count 20018
field mean 1.2412924465978e-005
field stddev 1.0409792745503e-005
field sum 0.24848192195995
field sqrsum 5.2535052128815e-006
field min 8.496e-007
field max 6.044533e-005
statistic Basic.rack[5].node[6].app 	hops
field count 20018
field mean 4.7491257867919
field stddev 0.43352708242038
field sum 95068
field sqrsum 455252
field min 4
field max 5
statistic Basic.rack[5].node[7].app 	throughput
field count 19964
field mean 9982.5
field stddev 5763.2547228107
field sum 199290630
field sqrsum 2652491855090
field min 1
field max 19964
statistic Basic.rack[5].node[7].app 	"End-to-End Delay"
field count 19964
field mean 1.2396989924161e-005
field stddev 1.0517388747493e-005
field sum 0.24749350684596
field sqrsum 5.2763910597379e-006
field min 8.496e-007
field max 6.2215088e-005
statistic Basic.rack[5].node[7].app 	hops
field count 19964
field mean 4.7445902624725
field stddev 0.43610220121857
field sum 94721
field sqrsum 453209
field min 4
field max 5
statistic Basic.rack[5].node[8].app 	throughput
field count 20130
field mean 10065.5
field stddev 5811.1747951684
field sum 202618515
field sqrsum 2719208010805
field min 1
field max 20130
statistic Basic.rack[5].node[8].app 	"End-to-End Delay"
field count 20130
field mean 1.2376144111821e-005
field stddev 1.0410334673894e-005
field sum 0.24913178097095
field sqrsum 5.2647725683554e-006
field min 8.496e-007
field max 5.8383124e-005
statistic Basic.rack[5].node[8].app 	hops
field count 20130
field mean 4.7475906607054
field stddev 0.43440561599651
field sum 95569
field sqrsum 457521
field min 4
field max 5
statistic Basic.rack[5].node[9].app 	throughput
field count 19964
field mean 9982.5
field stddev 5763.2547228107
field sum 199290630
field sqrsum 2652491855090
field min 1
field max 19964
statistic Basic.rack[5].node[9].app 	"End-to-End Delay"
field count 19964
field mean 1.2514245277648e-005
field stddev 1.0529458350174e-005
field sum 0.24983439272295
field sqrsum 5.3397765610416e-006
field min 8.496e-007
field max 6.9110464e-005
statistic Basic.rack[5].node[9].app 	hops
field count 19964
field mean 4.7502003606492
field stddev 0.43290780414149
field sum 94833
field sqrsum 454217
field min 4
field max 5
statistic Basic.rack[5].eps.queue[0] 	dropsum
field count 0
field mean nan
field stddev nan
field sum 0
field sqrsum 0
field min nan
field max nan
statistic Basic.rack[5].eps.queue[1] 	dropsum
field count 0
field mean nan
field stddev nan
field sum 0
field sqrsum 0
field min nan
field max nan
statistic Basic.rack[5].eps.queue[2] 	dropsum
field count 0
field mean nan
field stddev nan
field sum 0
field sqrsum 0
field min nan
field max nan
statistic Basic.rack[5].eps.queue[3] 	dropsum
field count 0
field mean nan
field stddev nan
field sum 0
field sqrsum 0
field min nan
field max nan
statistic Basic.rack[6].node[0].app 	throughput
field count 20072
field mean 10036.5
field stddev 5794.4316373567
field sum 201452628
field sqrsum 2695771917020
field min 1
field max 20072
statistic Basic.rack[6].node[0].app 	"End-to-End Delay"
field count 20072
field mean 1.070852243015e-005
field stddev 7.5255268998389e-006
field sum 0.21494146221797
field sqrsum 3.4383975541479e-006
field min 8.496e-007
field max 5.5349837e-005
statistic Basic.rack[6].node[0].app 	hops
field count 20072
field mean 5.000149461937
field stddev 0.7047600582148
field sum 100363
field sqrsum 511799
field min 4
field max 6
statistic Basic.rack[6].node[1].app 	throughput
field count 20008
field mean 10004.5
field stddev 5775.9564287369
field sum 200170036
field sqrsum 2670068110204
field min 1
field max 20008
statistic Basic.rack[6].node[1].app 	"End-to-End Delay"
field count 20008
field mean 1.0690025875548e-005
field stddev 7.4910991625655e-006
field sum 0.21388603771797
field sqrsum 3.409171426858e-006
field min 8.496e-007
field max 6.6583232e-005
statistic Basic.rack[6].node[1].app 	hops
field count 20008
field mean 5.0014994002399
field stddev 0.70443173727074
field sum 100070
field sqrsum 510428
field min 4
field max 6
statistic Basic.rack[6].node[2].app 	throughput
field count 19709
field mean 9855
field stddev 5689.6425634657
field sum 194232195
field sqrsum 2552146298235
field min 1
field max 19709
statistic Basic.rack[6].node[2].app 	"End-to-End Delay"
field count 19709
field mean 1.0625943126895e-005
field stddev 7.5224018553184e-006
field sum 0.20942671308797
field sqrsum 3.3405636693188e-006
field min 8.496e-007
field max 6.0758631e-005
statistic Basic.rack[6].node[2].app 	hops
field count 19709
field mean 4.9929981226851
field stddev 0.70599486311804
field sum 98407
field sqrsum 501169
field min 4
field max 6
statistic Basic.rack[6].node[3].app 	throughput
field count 19922
field mean 9961.5
field stddev 5751.1303671539
field sum 198453003
field sqrsum 2635786634845
field min 1
field max 19922
statistic Basic.rack[6].node[3].app 	"End-to-End Delay"
field count 19922
field mean 1.0643777221663e-005
field stddev 7.5385272249617e-006
field sum 0.21204532980997
field sqrsum 3.3890615837962e-006
field min 8.496e-007
field max 5.8666361e-005
statistic Basic.rack[6].node[3].app 	hops
field count 19922
field mean 4.9942776829636
field stddev 0.70663977732913
field sum 99496
field sqrsum 506858
field min 4
field max 6
statistic Basic.rack[6].node[4].app 	throughput
field count 19844
field mean 9922.5
field stddev 5728.6137066484
field sum 196902090
field sqrsum 2604949016670
field min 1
field max 19844
statistic Basic.rack[6].node[4].app 	"End-to-End Delay"
field count 19844
field mean 1.0717911034014e-005
field stddev 7.5627166137911e-006
field sum 0.21268622655897
field sqrsum 3.4144661408643e-006
field min 8.496e-007
field max 5.9967604e-005
statistic Basic.rack[6].node[4].app 	hops
field count 19844
field mean 5.0007558959887
field stddev 0.70801448892857
field sum 99235
field sqrsum 506197
field min 4
field max 6
statistic Basic.rack[6].node[5].app 	throughput
field count 19936
field mean 9968.5
field stddev 5755.1718190395
field sum 198732016
field sqrsum 2641347224656
field min 1
field max 19936
statistic Basic.rack[6].node[5].app 	"End-to-End Delay"
field count 19936
field mean 1.0706970127757e-005
field stddev 7.5504562088383e-006
field sum 0.21345415646697
field sqrsum 3.4219294458867e-006
field min 8.496e-007
field max 5.5419272e-005
statistic Basic.rack[6].node[5].app 	hops
field count 19936
field mean 4.9996488764045
field stddev 0.70573975377396
field sum 99673
field sqrsum 508259
field min 4
field max 6
statistic Basic.rack[6].node[6].app 	throughput
field count 20035
field mean 10018
field stddev 5783.7506573734
field sum 200710630
field sqrsum 2680891884910
field min 1
field max 20035
statistic Basic.rack[6].node[6].app 	"End-to-End Delay"
field count 20035
field mean 1.0675769047815e-005
field stddev 7.5774792089955e-006
field sum 0.21388903287297
field sqrsum 3.433745958567e-006
field min 8.496e-007
field max 5.1536993e-005
statistic Basic.rack[6].node[6].app 	hops
field count 20035
field mean 4.9971050661343
field stddev 0.70875780822476
field sum 100117
field sqrsum 510359
field min 4
field max 6
statistic Basic.rack[6].node[7].app 	throughput
field count 20020
field mean 10010.5
field stddev 5779.4205303531
field sum 200410210
field sqrsum 2674875072870
field min 1
field max 20020
statistic Basic.rack[6].node[7].app 	"End-to-End Delay"
field count 20020
field mean 1.0723284930068e-005
field stddev 7.5186139049341e-006
field sum 0.21468016429997
field sqrsum 3.4337417331978e-006
field min 8.496e-007
field max 5.4425775e-005
statistic Basic.rack[6].node[7].app 	hops
field count 20020
field mean 5.0041458541459
field stddev 0.70743010977276
field sum 100183
field sqrsum 511349
field min 4
field max 6
statistic Basic.rack[6].node[8].app 	throughput
field count 20013
field mean 10007
field stddev 5777.3998044103
field sum 200270091
field sqrsum 2672070310819
field min 1
field max 20013
statistic Basic.rack[6].node[8].app 	"End-to-End Delay"
field count 20013
field mean 1.0845686445209e-005
field stddev 7.5635806677933e-006
field sum 0.21705472282797
field sqrsum 3.4989490086385e-006
field min 8.496e-007
field max 5.5143309e-005
statistic Basic.rack[6].node[8].app 	hops
field count 20013
field mean 5.0120421725878
field stddev 0.7029995496444
field sum 100306
field sqrsum 512628
field min 4
field max 6
statistic Basic.rack[6].node[9].app 	throughput
field count 20153
field mean 10077
field stddev 5817.8143232661
field sum 203081781
field sqrsum 2728539115589
field min 1
field max 20153
statistic Basic.rack[6].node[9].app 	"End-to-End Delay"
field count 20153
field mean 1.0695737241551e-005
field stddev 7.5442985759831e-006
field sum 0.21555119262897
field sqrsum 3.4524590375665e-006
field min 8.496e-007
field max 5.5567733e-005
statistic Basic.rack[6].node[9].app 	hops
field count 20153
field mean 4.9981640450553
field stddev 0.7042564709952
field sum 100728
field sqrsum 513450
field min 4
field max 6
statistic Basic.rack[6].eps.queue[0] 	dropsum
field count 0
field mean nan
field stddev nan
field sum 0
field sqrsum 0
field min nan
field max nan
statistic Basic.rack[6].eps.queue[1] 	dropsum
field count 0
field mean nan
field stddev nan
field sum 0
field sqrsum 0
field min nan
field max nan
statistic Basic.rack[6].eps.queue[2] 	dropsum
field count 0
field mean nan
field stddev nan
field sum 0
field sqrsum 0
field min nan
field max nan
statistic Basic.rack[6].eps.queue[3] 	dropsum
field count 0
field mean nan
field stddev nan
field sum 0
field sqrsum 0
field min nan
field max nan
statistic Basic.rack[7].node[0].app 	throughput
field count 20063
field mean 10032
field stddev 5791.8335611445
field sum 201272016
field sqrsum 2692147395344
field min 1
field max 20063
statistic Basic.rack[7].node[0].app 	"End-to-End Delay"
field count 20063
field mean 1.7760184463838e-005
field stddev 8.337719766446e-006
field sum 0.35632258089797
field sqrsum 7.7230162728504e-006
field min 8.992e-006
field max 6.9070293e-005
statistic Basic.rack[7].node[0].app 	hops
field count 20063
field mean 4.242835069531
field stddev 0.82669628892627
field sum 85124
field sqrsum 374878
field min 3
field max 5
statistic Basic.rack[7].node[1].app 	throughput
field count 19883
field mean 9942
field stddev 5739.8720369012
field sum 197676786
field sqrsum 2620337582954
field min 1
field max 19883
statistic Basic.rack[7].node[1].app 	"End-to-End Delay"
field count 19883
field mean 1.7788802443895e-005
field stddev 8.3540771185478e-006
field sum 0.35369475899197
field sqrsum 7.6793829918708e-006
field min 8.992e-006
field max 7.3093443e-005
statistic Basic.rack[7].node[1].app 	hops
field count 19883
field mean 4.2502137504401
field stddev 0.82804268746386
field sum 84507
field sqrsum 372805
field min 3
field max 5
statistic Basic.rack[7].node[2].app 	throughput
field count 19914
field mean 9957.5
field stddev 5748.8209660764
field sum 198293655
field sqrsum 2632612661665
field min 1
field max 19914
statistic Basic.rack[7].node[2].app 	"End-to-End Delay"
field count 19914
field mean 1.772372396083e-005
field stddev 8.3465663032469e-006
field sum 0.35295023895597
field sqrsum 7.6428351185468e-006
field min 8.992e-006
field max 6.8407015e-005
statistic Basic.rack[7].node[2].app 	hops
field count 19914
field mean 4.2424927186904
field stddev 0.83078427645698
field sum 84485
field sqrsum 372171
field min 3
field max 5
statistic Basic.rack[7].node[3].app 	throughput
field count 20174
field mean 10087.5
field stddev 5823.8765010944
field sum 203505225
field sqrsum 2737077441175
field min 1
field max 20174
statistic Basic.rack[7].node[3].app 	"End-to-End Delay"
field count 20174
field mean 1.780341954927e-005
field stddev 8.4085601530328e-006
field sum 0.35916618598697
field sqrsum 7.8206957458862e-006
field min 8.992e-006
field max 6.2520599e-005
statistic Basic.rack[7].node[3].app 	hops
field count 20174
field mean 4.2530980469912
field stddev 0.82935776471423
field sum 85802
field sqrsum 378800
field min 3
field max 5
statistic Basic.rack[7].node[4].app 	throughput
field count 20018
field mean 10009.5
field stddev 5778.8431800837
field sum 200370171
field sqrsum 2674073512109
field min 1
field max 20018
statistic Basic.rack[7].node[4].app 	"End-to-End Delay"
field count 20018
field mean 1.7654262278248e-005
field stddev 8.3229283887246e-006
field sum 0.35340302228597
field sqrsum 7.6256699939673e-006
field min 8.992e-006
field max 6.0844677e-005
statistic Basic.rack[7].node[4].app 	hops
field count 20018
field mean 4.2375861724448
field stddev 0.83115270293693
field sum 84828
field sqrsum 373294
field min 3
field max 5
statistic Basic.rack[7].node[5].app 	throughput
field count 20155
field mean 10078
field stddev 5818.3916735355
field sum 203122090
field sqrsum 2729351523330
field min 1
field max 20155
statistic Basic.rack[7].node[5].app 	"End-to-End Delay"
field count 20155
field mean 1.7734561396228e-005
field stddev 8.3280174308403e-006
field sum 0.35744008494097
field sqrsum 7.7368414230726e-006
field min 8.992e-006
field max 6.5290976e-005
statistic Basic.rack[7].node[5].app 	hops
field count 20155
field mean 4.2487720168693
field stddev 0.82894020473468
field sum 85634
field sqrsum 377688
field min 3
field max 5
statistic Basic.rack[7].node[6].app 	throughput
field count 20033
field mean 10017
field stddev 5783.173307104
field sum 200670561
field sqrsum 2680089122529
field min 1
field max 20033
statistic Basic.rack[7].node[6].app 	"End-to-End Delay"
field count 20033
field mean 1.7754841951778e-005
field stddev 8.3147562264525e-006
field sum 0.35568274881997
field sqrsum 7.7000067378546e-006
field min 8.992e-006
field max 6.1039824e-005
statistic Basic.rack[7].node[6].app 	hops
field count 20033
field mean 4.2514351320321
field stddev 0.82561216396396
field sum 85169
field sqrsum 375745
field min 3
field max 5
statistic Basic.rack[7].node[7].app 	throughput
field count 20080
field mean 10040.5
field stddev 5796.7410384342
field sum 201613240
field sqrsum 2698996443880
field min 1
field max 20080
statistic Basic.rack[7].node[7].app 	"End-to-End Delay"
field count 20080
field mean 1.7698343412747e-005
field stddev 8.2891082205062e-006
field sum 0.35538273572797
field sqrsum 7.6693000375928e-006
field min 8.992e-006
field max 7.1094507e-005
statistic Basic.rack[7].node[7].app 	hops
field count 20080
field mean 4.2540836653386
field stddev 0.82943703322998
field sum 85422
field sqrsum 377206
field min 3
field max 5
statistic Basic.rack[7].node[8].app 	throughput
field count 19860
field mean 9930.5
field stddev 5733.2325088034
field sum 197219730
field sqrsum 2611254965110
field min 1
field max 19860
statistic Basic.rack[7].node[8].app 	"End-to-End Delay"
field count 19860
field mean 1.7767369442899e-005
field stddev 8.3885816356542e-006
field sum 0.35285995713597
field sqrsum 7.666837326639e-006
field min 8.992e-006
field max 6.3812636e-005
statistic Basic.rack[7].node[8].app 	hops
field count 19860
field mean 4.2450151057402
field stddev 0.83087593917433
field sum 84306
field sqrsum 371590
field min 3
field max 5
statistic Basic.rack[7].node[9].app 	throughput
field count 20133
field mean 10067
field stddev 5812.0408205724
field sum 202678911
field sqrsum 2720423903079
field min 1
field max 20133
statistic Basic.rack[7].node[9].app 	"End-to-End Delay"
field count 20133
field mean 1.7721568172998e-005
field stddev 8.3853453744452e-006
field sum 0.35678833202697
field sqrsum 7.7384105405712e-006
field min 8.992e-006
field max 6.9485116e-005
statistic Basic.rack[7].node[9].app 	hops
field count 20133
field mean 4.2496398947002
field stddev 0.83031039565404
field sum 85558
field sqrsum 377470
field min 3
field max 5
statistic Basic.rack[7].eps.queue[0] 	dropsum
field count 0
field mean nan
field stddev nan
field sum 0
field sqrsum 0
field min nan
field max nan
statistic Basic.rack[7].eps.queue[1] 	dropsum
field count 0
field mean nan
field stddev nan
field sum 0
field sqrsum 0
field min nan
field max nan
statistic Basic.rack[7].eps.queue[2] 	dropsum
field count 0
field mean nan
field stddev nan
field sum 0
field sqrsum 0
field min nan
field max nan
statistic Basic.rack[7].eps.queue[3] 	dropsum
field count 0
field mean nan
field stddev nan
field sum 0
field sqrsum 0
field min nan
field max nan
statistic Basic.rack[8].node[0].app 	throughput
field count 20414
field mean 10207.5
field stddev 5893.1585334182
field sum 208375905
field sqrsum 2835926608415
field min 1
field max 20414
statistic Basic.rack[8].node[0].app 	"End-to-End Delay"
field count 20414
field mean 1.2452292056086e-005
field stddev 8.239746834537e-006
field sum 0.25420109003295
field sqrsum 4.5512947577326e-006
field min 8.496e-007
field max 5.02964e-005
statistic Basic.rack[8].node[0].app 	hops
field count 20414
field mean 4.7468893896346
field stddev 0.83001952950064
field sum 96903
field sqrsum 474051
field min 4
field max 6
statistic Basic.rack[8].node[1].app 	throughput
field count 20134
field mean 10067.5
field stddev 5812.3294957071
field sum 202699045
field sqrsum 2720829281035
field min 1
field max 20134
statistic Basic.rack[8].node[1].app 	"End-to-End Delay"
field count 20134
field mean 1.2580339172343e-005
field stddev 8.2208178283098e-006
field sum 0.25329254889594
field sqrsum 4.5471314757502e-006
field min 8.496e-007
field max 4.9631239e-005
statistic Basic.rack[8].node[1].app 	hops
field count 20134
field mean 4.7568789112943
field stddev 0.82991916523886
field sum 95775
field sqrsum 469457
field min 4
field max 6
statistic Basic.rack[8].node[2].app 	throughput
field count 20105
field mean 10053
field stddev 5803.9579168013
field sum 202115565
field sqrsum 2709089661405
field min 1
field max 20105
statistic Basic.rack[8].node[2].app 	"End-to-End Delay"
field count 20105
field mean 1.2553850217505e-005
field stddev 8.2446756780706e-006
field sum 0.25239515862295
field sqrsum 4.5350939241192e-006
field min 8.496e-007
field max 5.0181003e-005
statistic Basic.rack[8].node[2].app 	hops
field count 20105
field mean 4.7448395921413
field stddev 0.82649817866688
field sum 95395
field sqrsum 466367
field min 4
field max 6
statistic Basic.rack[8].node[3].app 	throughput
field count 19966
field mean 9983.5
field stddev 5763.8320730801
field sum 199330561
field sqrsum 2653289097471
field min 1
field max 19966
statistic Basic.rack[8].node[3].app 	"End-to-End Delay"
field count 19966
field mean 1.2685339084341e-005
field stddev 8.2075784232853e-006
field sum 0.25327548015795
field sqrsum 4.5578144670153e-006
field min 8.496e-007
field max 5.5363953e-005
statistic Basic.rack[8].node[3].app 	hops
field count 19966
field mean 4.7616948812982
field stddev 0.8344013465193
field sum 95072
field sqrsum 466604
field min 4
field max 6
statistic Basic.rack[8].node[4].app 	throughput
field count 19890
field mean 9945.5
field stddev 5741.892762844
field sum 197815995
field sqrsum 2623106032365
field min 1
field max 19890
statistic Basic.rack[8].node[4].app 	"End-to-End Delay"
field count 19890
field mean 1.2496793098589e-005
field stddev 8.2354411350717e-006
field sum 0.24856121473094
field sqrsum 4.4551395901448e-006
field min 8.496e-007
field max 5.0272201e-005
statistic Basic.rack[8].node[4].app 	hops
field count 19890
field mean 4.7524886877828
field stddev 0.83220721434143
field sum 94527
field sqrsum 463013
field min 4
field max 6
statistic Basic.rack[8].node[5].app 	throughput
field count 20163
field mean 10082
field stddev 5820.7010746129
field sum 203283366
field sqrsum 2732602766894
field min 1
field max 20163
statistic Basic.rack[8].node[5].app 	"End-to-End Delay"
field count 20163
field mean 1.2569704323907e-005
field stddev 8.213714093091e-006
field sum 0.25344294828295
field sqrsum 4.5459342530277e-006
field min 8.496e-007
field max 5.2404205e-005
statistic Basic.rack[8].node[5].app 	hops
field count 20163
field mean 4.7531121360909
field stddev 0.82854634714848
field sum 95837
field sqrsum 469365
field min 4
field max 6
statistic Basic.rack[8].node[6].app 	throughput
field count 20303
field mean 10152
field stddev 5861.1155934685
field sum 206116056
field sqrsum 2789918228664
field min 1
field max 20303
statistic Basic.rack[8].node[6].app 	"End-to-End Delay"
field count 20303
field mean 1.2510435592225e-005
field stddev 8.2211499263396e-006
field sum 0.25399937382895
field sqrsum 4.5498002954253e-006
field min 8.496e-007
field max 5.2055141e-005
statistic Basic.rack[8].node[6].app 	hops
field count 20303
field mean 4.7433384228932
field stddev 0.82748854551655
field sum 96304
field sqrsum 470704
field min 4
field max 6
statistic Basic.rack[8].node[7].app 	throughput
field count 20057
field mean 10029
field stddev 5790.1015103364
field sum 201151653
field sqrsum 2689732853365
field min 1
field max 20057
statistic Basic.rack[8].node[7].app 	"End-to-End Delay"
field count 20057
field mean 1.2468106063018e-005
field stddev 8.2104161826854e-006
field sum 0.25007280330594
field sqrsum 4.4699279252507e-006
field min 8.496e-007
field max 6.7184423e-005
statistic Basic.rack[8].node[7].app 	hops
field count 20057
field mean 4.741885625966
field stddev 0.82270403965101
field sum 95108
field sqrsum 464566
field min 4
field max 6
statistic Basic.rack[8].node[8].app 	throughput
field count 19836
field mean 9918.5
field stddev 5726.3043055709
field sum 196743366
field sqrsum 2601799853106
field min 1
field max 19836
statistic Basic.rack[8].node[8].app 	"End-to-End Delay"
field count 19836
field mean 1.2506343548243e-005
field stddev 8.298034178567e-006
field sum 0.24807583062294
field sqrsum 4.4683075221068e-006
field min 8.496e-007
field max 5.8039884e-005
statistic Basic.rack[8].node[8].app 	hops
field count 19836
field mean 4.7443537003428
field stddev 0.82867130018047
field sum 94109
field sqrsum 460107
field min 4
field max 6
statistic Basic.rack[8].node[9].app 	throughput
field count 20031
field mean 10016
field stddev 5782.5959568346
field sum 200630496
field sqrsum 2679286520416
field min 1
field max 20031
statistic Basic.rack[8].node[9].app 	"End-to-End Delay"
field count 20031
field mean 1.2457504749286e-005
field stddev 8.2142924930133e-006
field sum 0.24953627763294
field sqrsum 4.4601156249818e-006
field min 8.496e-007
field max 5.4668589e-005
statistic Basic.rack[8].node[9].app 	hops
field count 20031
field mean 4.7521341920024
field stddev 0.83041130697773
field sum 95190
field sqrsum 466168
field min 4
field max 6
statistic Basic.rack[8].eps.queue[0] 	dropsum
field count 0
field mean nan
field stddev nan
field sum 0
field sqrsum 0
field min nan
field max nan
statistic Basic.rack[8].eps.queue[1] 	dropsum
field count 0
field mean nan
field stddev nan
field sum 0
field sqrsum 0
field min nan
field max nan
statistic Basic.rack[8].eps.queue[2] 	dropsum
field count 0
field mean nan
field stddev nan
field sum 0
field sqrsum 0
field min nan
field max nan
statistic Basic.rack[8].eps.queue[3] 	dropsum
field count 0
field mean nan
field stddev nan
field sum 0
field sqrsum 0
field min nan
field max nan
statistic Basic.rack[9].node[0].app 	throughput
field count 20124
field mean 10062.5
field stddev 5809.4427443603
field sum 202497750
field sqrsum 2716777313250
field min 1
field max 20124
statistic Basic.rack[9].node[0].app 	"End-to-End Delay"
field count 20124
field mean 1.2375074507054e-005
field stddev 1.0349376081535e-005
field sum 0.24903599937996
field sqrsum 5.2372052317958e-006
field min 8.496e-007
field max 5.7239392e-005
statistic Basic.rack[9].node[0].app 	hops
field count 20124
field mean 4.7527827469688
field stddev 0.43140483423673
field sum 95645
field sqrsum 458325
field min 4
field max 5
statistic Basic.rack[9].node[1].app 	throughput
field count 20000
field mean 10000.5
field stddev 5773.6470276594
field sum 200010000
field sqrsum 2666866670000
field min 1
field max 20000
statistic Basic.rack[9].node[1].app 	"End-to-End Delay"
field count 20000
field mean 1.2361180355548e-005
field stddev 1.0411414262499e-005
field sum 0.24722360711096
field sqrsum 5.2238181370082e-006
field min 8.496e-007
field max 6.0069595e-005
statistic Basic.rack[9].node[1].app 	hops
field count 20000
field mean 4.74695
field stddev 0.43477022524253
field sum 94939
field sqrsum 454451
field min 4
field max 5
statistic Basic.rack[9].node[2].app 	throughput
field count 20006
field mean 10003.5
field stddev 5775.3790784675
field sum 200130021
field sqrsum 2669267510091
field min 1
field max 20006
statistic Basic.rack[9].node[2].app 	"End-to-End Delay"
field count 20006
field mean 1.2478381080824e-005
field stddev 1.0441062278395e-005
field sum 0.24964249190296
field sqrsum 5.2959948568654e-006
field min 8.496e-007
field max 6.0622247e-005
statistic Basic.rack[9].node[2].app 	hops
field count 20006
field mean 4.7508247525742
field stddev 0.4325462929043
field sum 95045
field sqrsum 455285
field min 4
field max 5
statistic Basic.rack[9].node[3].app 	throughput
field count 19800
field mean 9900.5
field stddev 5715.9120007222
field sum 196029900
field sqrsum 2587660023300
field min 1
field max 19800
statistic Basic.rack[9].node[3].app 	"End-to-End Delay"
field count 19800
field mean 1.2507325607877e-005
field stddev 1.0465461785021e-005
field sum 0.24764504703596
field sqrsum 5.265880341966e-006
field min 8.496e-007
field max 5.672489e-005
statistic Basic.rack[9].node[3].app 	hops
field count 19800
field mean 4.7506060606061
field stddev 0.43267315289822
field sum 94062
field sqrsum 450558
field min 4
field max 5
statistic Basic.rack[9].node[4].app 	throughput
field count 19942
field mean 9971.5
field stddev 5756.9038698476
field sum 198851653
field sqrsum 2643732726635
field min 1
field max 19942
statistic Basic.rack[9].node[4].app 	"End-to-End Delay"
field count 19942
field mean 1.2473785427688e-005
field stddev 1.0448690037996e-005
field sum 0.24875222899896
field sqrsum 5.2799430671075e-006
field min 8.496e-007
field max 6.721016e-005
statistic Basic.rack[9].node[4].app 	hops
field count 19942
field mean 4.7500250727109
field stddev 0.43300908203559
field sum 94725
field sqrsum 453685
field min 4
field max 5
statistic Basic.rack[9].node[5].app 	throughput
field count 19800
field mean 9900.5
field stddev 5715.9120007222
field sum 196029900
field sqrsum 2587660023300
field min 1
field max 19800
statistic Basic.rack[9].node[5].app 	"End-to-End Delay"
field count 19800
field mean 1.249767232217e-005
field stddev 1.043551995304e-005
field sum 0.24745391197896
field sqrsum 5.2487105251433e-006
field min 8.496e-007
field max 5.9208078e-005
statistic Basic.rack[9].node[5].app 	hops
field count 19800
field mean 4.7530303030303
field stddev 0.43125985082452
field sum 94110
field sqrsum 450990
field min 4
field max 5
statistic Basic.rack[9].node[6].app 	throughput
field count 19928
field mean 9964.5
field stddev 5752.862417962
field sum 198572556
field sqrsum 2638168788164
field min 1
field max 19928
statistic Basic.rack[9].node[6].app 	"End-to-End Delay"
field count 19928
field mean 1.2506102170562e-005
field stddev 1.0434743616975e-005
field sum 0.24922160405496
field sqrsum 5.286519807635e-006
field min 8.496e-007
field max 6.1786678e-005
statistic Basic.rack[9].node[6].app 	hops
field count 19928
field mean 4.7561220393416
field stddev 0.42943073343101
field sum 94780
field sqrsum 454460
field min 4
field max 5
statistic Basic.rack[9].node[7].app 	throughput
field count 20144
field mean 10072.5
field stddev 5815.2162470539
field sum 202900440
field sqrsum 2724885275720
field min 1
field max 20144
statistic Basic.rack[9].node[7].app 	"End-to-End Delay"
field count 20144
field mean 1.2387900452242e-005
field stddev 1.0450278588619e-005
field sum 0.24954186670995
field sqrsum 5.2910830451933e-006
field min 8.496e-007
field max 5.9247652e-005
statistic Basic.rack[9].node[7].app 	hops
field count 20144
field mean 4.7470214455917
field stddev 0.43472955657187
field sum 95624
field sqrsum 457736
field min 4
field max 5
statistic Basic.rack[9].node[8].app 	throughput
field count 20114
field mean 10057.5
field stddev 5806.5559930134
field sum 202296555
field sqrsum 2712729370365
field min 1
field max 20114
statistic Basic.rack[9].node[8].app 	"End-to-End Delay"
field count 20114
field mean 1.2505049599431e-005
field stddev 1.047719569358e-005
field sum 0.25152656764296
field sqrsum 5.3531889901261e-006
field min 8.496e-007
field max 6.0328078e-005
statistic Basic.rack[9].node[8].app 	hops
field count 20114
field mean 4.7542010539922
field stddev 0.43057059951221
field sum 95626
field sqrsum 458354
field min 4
field max 5
statistic Basic.rack[9].node[9].app 	throughput
field count 19974
field mean 9987.5
field stddev 5766.1414741576
field sum 199490325
field sqrsum 2656479664475
field min 1
field max 19974
statistic Basic.rack[9].node[9].app 	"End-to-End Delay"
field count 19974
field mean 1.2477605608839e-005
field stddev 1.0453481677237e-005
field sum 0.24922769443095
field sqrsum 5.2923200288985e-006
field min 8.496e-007
field max 6.2546567e-005
statistic Basic.rack[9].node[9].app 	hops
field count 19974
field mean 4.7514268549114
field stddev 0.43219658545759
field sum 94905
field sqrsum 454665
field min 4
field max 5
statistic Basic.rack[9].eps.queue[0] 	dropsum
field count 0
field mean nan
field stddev nan
field sum 0
field sqrsum 0
field min nan
field max nan
statistic Basic.rack[9].eps.queue[1] 	dropsum
field count 0
field mean nan
field stddev nan
field sum 0
field sqrsum 0
field min nan
field max nan
statistic Basic.rack[9].eps.queue[2] 	dropsum
field count 0
field mean nan
field stddev nan
field sum 0
field sqrsum 0
field min nan
field max nan
statistic Basic.rack[9].eps.queue[3] 	dropsum
field count 0
field mean nan
field stddev nan
field sum 0
field sqrsum 0
field min nan
field max nan
statistic Basic.rack[10].node[0].app 	throughput
field count 20030
field mean 10015.5
field stddev 5782.3072816999
field sum 200610465
field sqrsum 2678885279455
field min 1
field max 20030
statistic Basic.rack[10].node[0].app 	"End-to-End Delay"
field count 20030
field mean 1.0652694391411e-005
field stddev 7.520125860343e-006
field sum 0.21337346865997
field sqrsum 3.4056882284738e-006
field min 8.496e-007
field max 5.3433499e-005
statistic Basic.rack[10].node[0].app 	hops
field count 20030
field mean 4.9943584623065
field stddev 0.70448455802658
field sum 100037
field sqrsum 509561
field min 4
field max 6
statistic Basic.rack[10].node[1].app 	throughput
field count 19822
field mean 9911.5
field stddev 5722.2628536853
field sum 196465753
field sqrsum 2596294925895
field min 1
field max 19822
statistic Basic.rack[10].node[1].app 	"End-to-End Delay"
field count 19822
field mean 1.064798119009e-005
field stddev 7.5428722709329e-006
field sum 0.21106428314997
field sqrsum 3.3751227677379e-006
field min 8.496e-007
field max 5.9603401e-005
statistic Basic.rack[10].node[1].app 	hops
field count 19822
field mean 4.993794773484
field stddev 0.70602632582154
field sum 98987
field sqrsum 504201
field min 4
field max 6
statistic Basic.rack[10].node[2].app 	throughput
field count 20032
field mean 10016.5
field stddev 5782.8846319693
field sum 200650528
field sqrsum 2679687801440
field min 1
field max 20032
statistic Basic.rack[10].node[2].app 	"End-to-End Delay"
field count 20032
field mean 1.0786490503243e-005
field stddev 7.5362713938672e-006
field sum 0.21607497776097
field sqrsum 3.4683590830298e-006
field min 8.496e-007
field max 5.7190694e-005
statistic Basic.rack[10].node[2].app 	hops
field count 20032
field mean 5.0101837060703
field stddev 0.7061326080453
field sum 100364
field sqrsum 512830
field min 4
field max 6
statistic Basic.rack[10].node[3].app 	throughput
field count 20103
field mean 10052
field stddev 5803.3805665319
field sum 202075356
field sqrsum 2708281279564
field min 1
field max 20103
statistic Basic.rack[10].node[3].app 	"End-to-End Delay"
field count 20103
field mean 1.074121732985e-005
field stddev 7.5768104036148e-006
field sum 0.21593069198197
field sqrsum 3.4733752303107e-006
field min 8.496e-007
field max 5.3176974e-005
statistic Basic.rack[10].node[3].app 	hops
field count 20103
field mean 5.0047256628364
field stddev 0.70954908750058
field sum 100610
field sqrsum 513646
field min 4
field max 6
statistic Basic.rack[10].node[4].app 	throughput
field count 20017
field mean 10009
field stddev 5778.554504949
field sum 200350153
field sqrsum 2673672791785
field min 1
field max 20017
statistic Basic.rack[10].node[4].app 	"End-to-End Delay"
field count 20017
field mean 1.0614219137332e-005
field stddev 7.6162489834171e-006
field sum 0.21246482447197
field sqrsum 3.4162212934455e-006
field min 8.496e-007
field max 5.4715073e-005
statistic Basic.rack[10].node[4].app 	hops
field count 20017
field mean 4.9895089174202
field stddev 0.71062356768472
field sum 99875
field sqrsum 508435
field min 4
field max 6
statistic Basic.rack[10].node[5].app 	throughput
field count 19989
field mean 9995
field stddev 5770.4716011778
field sum 199790055
field sqrsum 2662468869615
field min 1
field max 19989
statistic Basic.rack[10].node[5].app 	"End-to-End Delay"
field count 19989
field mean 1.0635823135223e-005
field stddev 7.5513687576473e-006
field sum 0.21259946864997
field sqrsum 3.4009494714415e-006
field min 8.496e-007
field max 5.5692144e-005
statistic Basic.rack[10].node[5].app 	hops
field count 19989
field mean 4.9938966431537
field stddev 0.70976406540509
field sum 99823
field sqrsum 508575
field min 4
field max 6
statistic Basic.rack[10].node[6].app 	throughput
field count 20296
field mean 10148.5
field stddev 5859.0948675258
field sum 205973956
field sqrsum 2787033598636
field min 1
field max 20296
statistic Basic.rack[10].node[6].app 	"End-to-End Delay"
field count 20296
field mean 1.0748762153477e-005
field stddev 7.5408486456207e-006
field sum 0.21815687666697
field sqrsum 3.4989793428592e-006
field min 8.496e-007
field max 5.1186097e-005
statistic Basic.rack[10].node[6].app 	hops
field count 20296
field mean 5.0056168703193
field stddev 0.70814637076203
field sum 101594
field sqrsum 518718
field min 4
field max 6
statistic Basic.rack[10].node[7].app 	throughput
field count 19970
field mean 9985.5
field stddev 5764.9867736188
field sum 199410435
field sqrsum 2654884061445
field min 1
field max 19970
statistic Basic.rack[10].node[7].app 	"End-to-End Delay"
field count 19970
field mean 1.0599626779918e-005
field stddev 7.4153967730408e-006
field sum 0.21167454679497
field sqrsum 3.3417287494792e-006
field min 8.496e-007
field max 5.2109646e-005
statistic Basic.rack[10].node[7].app 	hops
field count 19970
field mean 4.9902353530295
field stddev 0.69907960831018
field sum 99655
field sqrsum 507061
field min 4
field max 6
statistic Basic.rack[10].node[8].app 	throughput
field count 19894
field mean 9947.5
field stddev 5743.0474633827
field sum 197895565
field sqrsum 2624688878595
field min 1
field max 19894
statistic Basic.rack[10].node[8].app 	"End-to-End Delay"
field count 19894
field mean 1.0839661813912e-005
field stddev 7.560136334553e-006
field sum 0.21564423212597
field sqrsum 3.4745081205374e-006
field min 8.496e-007
field max 5.3441417e-005
statistic Basic.rack[10].node[8].app 	hops
field count 19894
field mean 5.0134713984116
field stddev 0.70553711474293
field sum 99738
field sqrsum 509936
field min 4
field max 6
statistic Basic.rack[10].node[9].app 	throughput
field count 20127
field mean 10064
field stddev 5810.3087697643
field sum 202558128
field sqrsum 2717992480880
field min 1
field max 20127
statistic Basic.rack[10].node[9].app 	"End-to-End Delay"
field count 20127
field mean 1.0775039034976e-005
field stddev 7.5410973693938e-006
field sum 0.21686921065697
field sqrsum 3.4813025878483e-006
field min 8.496e-007
field max 5.2543139e-005
statistic Basic.rack[10].node[9].app 	hops
field count 20127
field mean 5.0085954190888
field stddev 0.70628110672315
field sum 100808
field sqrsum 514946
field min 4
field max 6
statistic Basic.rack[10].eps.queue[0] 	dropsum
field count 0
field mean nan
field stddev nan
field sum 0
field sqrsum 0
field min nan
field max nan
statistic Basic.rack[10].eps.queue[1] 	dropsum
field count 0
field mean nan
field stddev nan
field sum 0
field sqrsum 0
field min nan
field max nan
statistic Basic.rack[10].eps.queue[2] 	dropsum
field count 0
field mean nan
field stddev nan
field sum 0
field sqrsum 0
field min nan
field max nan
statistic Basic.rack[10].eps.queue[3] 	dropsum
field count 0
field mean nan
field stddev nan
field sum 0
field sqrsum 0
field min nan
field max nan
statistic Basic.rack[11].node[0].app 	throughput
field count 20163
field mean 10082
field stddev 5820.7010746129
field sum 203283366
field sqrsum 2732602766894
field min 1
field max 20163
statistic Basic.rack[11].node[0].app 	"End-to-End Delay"
field count 20163
field mean 1.780852828453e-005
field stddev 8.4091308040346e-006
field sum 0.35907335580097
field sqrsum 7.8202932144922e-006
field min 8.992e-006
field max 7.3498764e-005
statistic Basic.rack[11].node[0].app 	hops
field count 20163
field mean 4.2576997470614
field stddev 0.82656854505844
field sum 85848
field sqrsum 379290
field min 3
field max 5
statistic Basic.rack[11].node[1].app 	throughput
field count 19917
field mean 9959
field stddev 5749.6869914805
field sum 198353403
field sqrsum 2633802602835
field min 1
field max 19917
statistic Basic.rack[11].node[1].app 	"End-to-End Delay"
field count 19917
field mean 1.7657592877992e-005
field stddev 8.333933570954e-006
field sum 0.35168627735097
field sqrsum 7.5931879078454e-006
field min 8.992e-006
field max 6.5306578e-005
statistic Basic.rack[11].node[1].app 	hops
field count 19917
field mean 4.2470251543907
field stddev 0.82777393817959
field sum 84588
field sqrsum 372894
field min 3
field max 5
statistic Basic.rack[11].node[2].app 	throughput
field count 19947
field mean 9974
field stddev 5758.3472455211
field sum 198951378
field sqrsum 2645721741770
field min 1
field max 19947
statistic Basic.rack[11].node[2].app 	"End-to-End Delay"
field count 19947
field mean 1.7666637978291e-005
field stddev 8.3095882095039e-006
field sum 0.35239642775297
field sqrsum 7.6029165783497e-006
field min 8.992e-006
field max 6.5913138e-005
statistic Basic.rack[11].node[2].app 	hops
field count 19947
field mean 4.2498120018048
field stddev 0.831912225067
field sum 84771
field sqrsum 374065
field min 3
field max 5
statistic Basic.rack[11].node[3].app 	throughput
field count 20005
field mean 10003
field stddev 5775.0904033328
field sum 200110015
field sqrsum 2668867270055
field min 1
field max 20005
statistic Basic.rack[11].node[3].app 	"End-to-End Delay"
field count 20005
field mean 1.7705253302723e-005
field stddev 8.3494541947769e-006
field sum 0.35419359232097
field sqrsum 7.665633830799e-006
field min 8.992e-006
field max 6.2950176e-005
statistic Basic.rack[11].node[3].app 	hops
field count 20005
field mean 4.2452386903274
field stddev 0.83054499472637
field sum 84926
field sqrsum 374330
field min 3
field max 5
statistic Basic.rack[11].node[4].app 	throughput
field count 19875
field mean 9938
field stddev 5737.5626358237
field sum 197517750
[...]
field sqrsum 5.2009774523654e-006
field min 8.496e-007
field max 5.850434e-005
statistic Basic.rack[13].node[1].app 	hops
field count 19911
field mean 4.746672693486
field stddev 0.43492767521645
field sum 94511
field sqrsum 452379
field min 4
field max 5
statistic Basic.rack[13].node[2].app 	throughput
field count 19792
field mean 9896.5
field stddev 5713.6025996447
field sum 195871528
field sqrsum 2584524811960
field min 1
field max 19792
statistic Basic.rack[13].node[2].app 	"End-to-End Delay"
field count 19792
field mean 1.2508672785972e-005
field stddev 1.0468910374471e-005
field sum 0.24757165177996
field sqrsum 5.2658484721268e-006
field min 8.496e-007
field max 7.1604877e-005
statistic Basic.rack[13].node[2].app 	hops
field count 19792
field mean 4.7514147130154
field stddev 0.43220374852642
field sum 94040
field sqrsum 450520
field min 4
field max 5
statistic Basic.rack[13].node[3].app 	throughput
field count 19844
field mean 9922.5
field stddev 5728.6137066484
field sum 196902090
field sqrsum 2604949016670
field min 1
field max 19844
statistic Basic.rack[13].node[3].app 	"End-to-End Delay"
field count 19844
field mean 1.2389599088035e-005
field stddev 1.0444711638369e-005
field sum 0.24585920430296
field sqrsum 5.2108095534007e-006
field min 8.496e-007
field max 8.4910043e-005
statistic Basic.rack[13].node[3].app 	hops
field count 19844
field mean 4.7487401733521
field stddev 0.43374855273724
field sum 94234
field sqrsum 451226
field min 4
field max 5
statistic Basic.rack[13].node[4].app 	throughput
field count 19783
field mean 9892
field stddev 5711.0045234325
field sum 195693436
field sqrsum 2581000727404
field min 1
field max 19783
statistic Basic.rack[13].node[4].app 	"End-to-End Delay"
field count 19783
field mean 1.230418003432e-005
field stddev 1.0457295063634e-005
field sum 0.24341359361896
field sqrsum 5.1582656852761e-006
field min 8.496e-007
field max 6.6545747e-005
statistic Basic.rack[13].node[4].app 	hops
field count 19783
field mean 4.7436182581004
field stddev 0.43664606018687
field sum 93843
field sqrsum 448927
field min 4
field max 5
statistic Basic.rack[13].node[5].app 	throughput
field count 19890
field mean 9945.5
field stddev 5741.892762844
field sum 197815995
field sqrsum 2623106032365
field min 1
field max 19890
statistic Basic.rack[13].node[5].app 	"End-to-End Delay"
field count 19890
field mean 1.237755855852e-005
field stddev 1.0437024627447e-005
field sum 0.24618963972896
field sqrsum 5.2137649491036e-006
field min 8.496e-007
field max 5.8728408e-005
statistic Basic.rack[13].node[5].app 	hops
field count 19890
field mean 4.7452488687783
field stddev 0.43573218608547
field sum 94383
field sqrsum 451647
field min 4
field max 5
statistic Basic.rack[13].node[6].app 	throughput
field count 19971
field mean 9986
field stddev 5765.2754487535
field sum 199430406
field sqrsum 2655282902286
field min 1
field max 19971
statistic Basic.rack[13].node[6].app 	"End-to-End Delay"
field count 19971
field mean 1.2394887805966e-005
field stddev 1.0481684874004e-005
field sum 0.24753830437296
field sqrsum 5.2622278948067e-006
field min 8.496e-007
field max 6.3488359e-005
statistic Basic.rack[13].node[6].app 	hops
field count 19971
field mean 4.7446797856892
field stddev 0.43605197321706
field sum 94756
field sqrsum 453384
field min 4
field max 5
statistic Basic.rack[13].node[7].app 	throughput
field count 20052
field mean 10026.5
field stddev 5788.658134663
field sum 201051378
field sqrsum 2687721838230
field min 1
field max 20052
statistic Basic.rack[13].node[7].app 	"End-to-End Delay"
field count 20052
field mean 1.2470470918111e-005
field stddev 1.0412345593554e-005
field sum 0.25005788284996
field sqrsum 5.2922076350954e-006
field min 8.496e-007
field max 6.6949336e-005
statistic Basic.rack[13].node[7].app 	hops
field count 20052
field mean 4.7534410532615
field stddev 0.43101844192353
field sum 95316
field sqrsum 456804
field min 4
field max 5
statistic Basic.rack[13].node[8].app 	throughput
field count 19791
field mean 9896
field stddev 5713.31392451
field sum 195851736
field sqrsum 2584133088696
field min 1
field max 19791
statistic Basic.rack[13].node[8].app 	"End-to-End Delay"
field count 19791
field mean 1.2401322152138e-005
field stddev 1.045884036196e-005
field sum 0.24543456671296
field sqrsum 5.2084886216564e-006
field min 8.496e-007
field max 7.8084927e-005
statistic Basic.rack[13].node[8].app 	hops
field count 19791
field mean 4.7461977666616
field stddev 0.43519677102075
field sum 93932
field sqrsum 449568
field min 4
field max 5
statistic Basic.rack[13].node[9].app 	throughput
field count 19973
field mean 9987
field stddev 5765.8527990229
field sum 199470351
field sqrsum 2656080703799
field min 1
field max 19973
statistic Basic.rack[13].node[9].app 	"End-to-End Delay"
field count 19973
field mean 1.2543620106742e-005
field stddev 1.0523601625557e-005
field sum 0.25053372439196
field sqrsum 5.3544227928157e-006
field min 8.496e-007
field max 6.0636487e-005
statistic Basic.rack[13].node[9].app 	hops
field count 19973
field mean 4.7513142742703
field stddev 0.43226206252921
field sum 94898
field sqrsum 454622
field min 4
field max 5
statistic Basic.rack[13].eps.queue[0] 	dropsum
field count 0
field mean nan
field stddev nan
field sum 0
field sqrsum 0
field min nan
field max nan
statistic Basic.rack[13].eps.queue[1] 	dropsum
field count 0
field mean nan
field stddev nan
field sum 0
field sqrsum 0
field min nan
field max nan
statistic Basic.rack[13].eps.queue[2] 	dropsum
field count 0
field mean nan
field stddev nan
field sum 0
field sqrsum 0
field min nan
field max nan
statistic Basic.rack[13].eps.queue[3] 	dropsum
field count 0
field mean nan
field stddev nan
field sum 0
field sqrsum 0
field min nan
field max nan
statistic Basic.rack[14].node[0].app 	throughput
field count 19835
field mean 9918
field stddev 5726.0156304362
field sum 196723530
field sqrsum 2601406386210
field min 1
field max 19835
statistic Basic.rack[14].node[0].app 	"End-to-End Delay"
field count 19835
field mean 1.0652549019913e-005
field stddev 7.5258909468462e-006
field sum 0.21129330980997
field sqrsum 3.3741909514725e-006
field min 8.496e-007
field max 5.6469443e-005
statistic Basic.rack[14].node[0].app 	hops
field count 19835
field mean 4.9985883539198
field stddev 0.7097031461871
field sum 99147
field sqrsum 505585
field min 4
field max 6
statistic Basic.rack[14].node[1].app 	throughput
field count 19971
field mean 9986
field stddev 5765.2754487535
field sum 199430406
field sqrsum 2655282902286
field min 1
field max 19971
statistic Basic.rack[14].node[1].app 	"End-to-End Delay"
field count 19971
field mean 1.0736790390615e-005
field stddev 7.5433659255654e-006
field sum 0.21442444089097
field sqrsum 3.4385705951261e-006
field min 8.496e-007
field max 5.1698031e-005
statistic Basic.rack[14].node[1].app 	hops
field count 19971
field mean 5.0038055180011
field stddev 0.7093943893428
field sum 99931
field sqrsum 510085
field min 4
field max 6
statistic Basic.rack[14].node[2].app 	throughput
field count 20094
field mean 10047.5
field stddev 5800.7824903197
field sum 201894465
field sqrsum 2704645551295
field min 1
field max 20094
statistic Basic.rack[14].node[2].app 	"End-to-End Delay"
field count 20094
field mean 1.0670014018313e-005
field stddev 7.5470411444681e-006
field sum 0.21440326168397
field sqrsum 3.4321394866592e-006
field min 8.496e-007
field max 7.1643954e-005
statistic Basic.rack[14].node[2].app 	hops
field count 20094
field mean 4.9971135662387
field stddev 0.70736478029826
field sum 100412
field sqrsum 511824
field min 4
field max 6
statistic Basic.rack[14].node[3].app 	throughput
field count 19908
field mean 9954.5
field stddev 5747.0889152683
field sum 198174186
field sqrsum 2630233854654
field min 1
field max 19908
statistic Basic.rack[14].node[3].app 	"End-to-End Delay"
field count 19908
field mean 1.0766051196854e-005
field stddev 7.5542932803772e-006
field sum 0.21433054722697
field sqrsum 3.4435333205465e-006
field min 8.496e-007
field max 5.5585712e-005
statistic Basic.rack[14].node[3].app 	hops
field count 19908
field mean 5.0067811934901
field stddev 0.70719857936544
field sum 99675
field sqrsum 509007
field min 4
field max 6
statistic Basic.rack[14].node[4].app 	throughput
field count 20011
field mean 10006
field stddev 5776.8224541409
field sum 200230066
field sqrsum 2671269310506
field min 1
field max 20011
statistic Basic.rack[14].node[4].app 	"End-to-End Delay"
field count 20011
field mean 1.0709815026434e-005
field stddev 7.5067536606421e-006
field sum 0.21431410849397
field sqrsum 3.422854983462e-006
field min 8.496e-007
field max 5.900479e-005
statistic Basic.rack[14].node[4].app 	hops
field count 20011
field mean 5.0010993953326
field stddev 0.70374083658872
field sum 100077
field sqrsum 510405
field min 4
field max 6
statistic Basic.rack[14].node[5].app 	throughput
field count 20142
field mean 10071.5
field stddev 5814.6388967846
field sum 202860153
field sqrsum 2724073754535
field min 1
field max 20142
statistic Basic.rack[14].node[5].app 	"End-to-End Delay"
field count 20142
field mean 1.0714434057143e-005
field stddev 7.5328473942598e-006
field sum 0.21581013077897
field sqrsum 3.4551600867698e-006
field min 8.496e-007
field max 5.7419385e-005
statistic Basic.rack[14].node[5].app 	hops
field count 20142
field mean 5.0049151027703
field stddev 0.7076687537491
field sum 100809
field sqrsum 514627
field min 4
field max 6
statistic Basic.rack[14].node[6].app 	throughput
field count 19847
field mean 9924
field stddev 5729.4797320525
field sum 196961628
field sqrsum 2606130607820
field min 1
field max 19847
statistic Basic.rack[14].node[6].app 	"End-to-End Delay"
field count 19847
field mean 1.0676014137601e-005
field stddev 7.449095866723e-006
field sum 0.21188685258897
field sqrsum 3.3633423079426e-006
field min 8.496e-007
field max 8.5047345e-005
statistic Basic.rack[14].node[6].app 	hops
field count 19847
field mean 5.0038796795485
field stddev 0.70466911680441
field sum 99312
field sqrsum 506800
field min 4
field max 6
statistic Basic.rack[14].node[7].app 	throughput
field count 20054
field mean 10027.5
field stddev 5789.2354849324
field sum 201091485
field sqrsum 2688526123955
field min 1
field max 20054
statistic Basic.rack[14].node[7].app 	"End-to-End Delay"
field count 20054
field mean 1.0612866391541e-005
field stddev 7.5373524978526e-006
field sum 0.21283042261597
field sqrsum 3.3979855119981e-006
field min 8.496e-007
field max 6.3794682e-005
statistic Basic.rack[14].node[7].app 	hops
field count 20054
field mean 4.991822080383
field stddev 0.70506424158337
field sum 100106
field sqrsum 509680
field min 4
field max 6
statistic Basic.rack[14].node[8].app 	throughput
field count 20126
field mean 10063.5
field stddev 5810.0200946296
field sum 202538001
field sqrsum 2717587384751
field min 1
field max 20126
statistic Basic.rack[14].node[8].app 	"End-to-End Delay"
field count 20126
field mean 1.0748023418711e-005
field stddev 7.5795156777129e-006
field sum 0.21631471932497
field sqrsum 3.4811179595291e-006
field min 8.496e-007
field max 4.9046306e-005
statistic Basic.rack[14].node[8].app 	hops
field count 20126
field mean 5.0030805922687
field stddev 0.70637941358688
field sum 100692
field sqrsum 513812
field min 4
field max 6
statistic Basic.rack[14].node[9].app 	throughput
field count 19947
field mean 9974
field stddev 5758.3472455211
field sum 198951378
field sqrsum 2645721741770
field min 1
field max 19947
statistic Basic.rack[14].node[9].app 	"End-to-End Delay"
field count 19947
field mean 1.0811094160474e-005
field stddev 7.5561019269485e-006
field sum 0.21564889521897
field sqrsum 3.4702109259013e-006
field min 8.496e-007
field max 5.2381199e-005
statistic Basic.rack[14].node[9].app 	hops
field count 19947
field mean 5.0099764375595
field stddev 0.7046925085323
field sum 99934
field sqrsum 510572
field min 4
field max 6
statistic Basic.rack[14].eps.queue[0] 	dropsum
field count 0
field mean nan
field stddev nan
field sum 0
field sqrsum 0
field min nan
field max nan
statistic Basic.rack[14].eps.queue[1] 	dropsum
field count 0
field mean nan
field stddev nan
field sum 0
field sqrsum 0
field min nan
field max nan
statistic Basic.rack[14].eps.queue[2] 	dropsum
field count 0
field mean nan
field stddev nan
field sum 0
field sqrsum 0
field min nan
field max nan
statistic Basic.rack[14].eps.queue[3] 	dropsum
field count 0
field mean nan
field stddev nan
field sum 0
field sqrsum 0
field min nan
field max nan
statistic Basic.rack[15].node[0].app 	throughput
field count 19773
field mean 9887
field stddev 5708.1177720856
field sum 195495651
field sqrsum 2577088836699
field min 1
field max 19773
statistic Basic.rack[15].node[0].app 	"End-to-End Delay"
field count 19773
field mean 1.7705884354573e-005
field stddev 8.3154533003637e-006
field sum 0.35009845134297
field sqrsum 7.5659725019057e-006
field min 8.992e-006
field max 6.3098227e-005
statistic Basic.rack[15].node[0].app 	hops
field count 19773
field mean 4.2408840337834
field stddev 0.83069250495308
field sum 83855
field sqrsum 369263
field min 3
field max 5
statistic Basic.rack[15].node[1].app 	throughput
field count 20221
field mean 10111
field stddev 5837.4442324246
field sum 204454531
field sqrsum 2756251532411
field min 1
field max 20221
statistic Basic.rack[15].node[1].app 	"End-to-End Delay"
field count 20221
field mean 1.7682038303e-005
field stddev 8.2852781244396e-006
field sum 0.35754849652497
field sqrsum 7.7102049661129e-006
field min 8.992e-006
field max 7.6041651e-005
statistic Basic.rack[15].node[1].app 	hops
field count 20221
field mean 4.2484051233866
field stddev 0.82616883796497
field sum 85907
field sqrsum 378769
field min 3
field max 5
statistic Basic.rack[15].node[2].app 	throughput
field count 20116
field mean 10058.5
field stddev 5807.1333432828
field sum 202336786
field sqrsum 2713538637046
field min 1
field max 20116
statistic Basic.rack[15].node[2].app 	"End-to-End Delay"
field count 20116
field mean 1.778135513248e-005
field stddev 8.3639665474275e-006
field sum 0.35768973984497
field sqrsum 7.7673719522443e-006
field min 8.992e-006
field max 6.9025284e-005
statistic Basic.rack[15].node[2].app 	hops
field count 20116
field mean 4.2543746271625
field stddev 0.82435476414694
field sum 85581
field sqrsum 377763
field min 3
field max 5
statistic Basic.rack[15].node[3].app 	throughput
field count 19870
field mean 9935.5
field stddev 5736.1192601503
field sum 197418385
field sqrsum 2615201346095
field min 1
field max 19870
statistic Basic.rack[15].node[3].app 	"End-to-End Delay"
field count 19870
field mean 1.7694232271715e-005
field stddev 8.3473724180864e-006
field sum 0.35158439523897
field sqrsum 7.6054605781498e-006
field min 8.992e-006
field max 7.8105295e-005
statistic Basic.rack[15].node[3].app 	hops
field count 19870
field mean 4.250780070458
field stddev 0.82956355769517
field sum 84463
field sqrsum 372707
field min 3
field max 5
statistic Basic.rack[15].node[4].app 	throughput
field count 19988
field mean 9994.5
field stddev 5770.1829260432
field sum 199770066
field sqrsum 2662069309494
field min 1
field max 19988
statistic Basic.rack[15].node[4].app 	"End-to-End Delay"
field count 19988
field mean 1.771385071868e-005
field stddev 8.3739258438672e-006
field sum 0.35406444816497
field sqrsum 7.6733858661153e-006
field min 8.992e-006
field max 7.189936e-005
statistic Basic.rack[15].node[4].app 	hops
field count 19988
field mean 4.2456473884331
field stddev 0.83201173334909
field sum 84862
field sqrsum 374130
field min 3
field max 5
statistic Basic.rack[15].node[5].app 	throughput
field count 19715
field mean 9858
field stddev 5691.3746142738
field sum 194350470
field sqrsum 2554477794190
field min 1
field max 19715
statistic Basic.rack[15].node[5].app 	"End-to-End Delay"
field count 19715
field mean 1.7723007057011e-005
field stddev 8.3405585590645e-006
field sum 0.34940908412897
field sqrsum 7.5639824390611e-006
field min 8.992e-006
field max 7.1593238e-005
statistic Basic.rack[15].node[5].app 	hops
field count 19715
field mean 4.246005579508
field stddev 0.82987465423167
field sum 83710
field sqrsum 369010
field min 3
field max 5
statistic Basic.rack[15].node[6].app 	throughput
field count 20121
field mean 10061
field stddev 5808.5767189562
field sum 202437381
field sqrsum 2715562507861
field min 1
field max 20121
statistic Basic.rack[15].node[6].app 	"End-to-End Delay"
field count 20121
field mean 1.7826875047859e-005
field stddev 8.3750600102031e-006
field sum 0.35869455283797
field sqrsum 7.8056525729011e-006
field min 8.992e-006
field max 7.5374283e-005
statistic Basic.rack[15].node[6].app 	hops
field count 20121
field mean 4.2572933750808
field stddev 0.82689003325579
field sum 85661
field sqrsum 378441
field min 3
field max 5
statistic Basic.rack[15].node[7].app 	throughput
field count 19893
field mean 9947
field stddev 5742.758788248
field sum 197875671
field sqrsum 2624293107359
field min 1
field max 19893
statistic Basic.rack[15].node[7].app 	"End-to-End Delay"
field count 19893
field mean 1.7753872810384e-005
field stddev 8.2774833906907e-006
field sum 0.35317779181697
field sqrsum 7.6332084140555e-006
field min 8.992e-006
field max 6.2893448e-005
statistic Basic.rack[15].node[7].app 	hops
field count 19893
field mean 4.2583823455487
field stddev 0.82344231511633
field sum 84712
field sqrsum 374224
field min 3
field max 5
statistic Basic.rack[15].node[8].app 	throughput
field count 19974
field mean 9987.5
field stddev 5766.1414741576
field sum 199490325
field sqrsum 2656479664475
field min 1
field max 19974
statistic Basic.rack[15].node[8].app 	"End-to-End Delay"
field count 19974
field mean 1.7734251298286e-005
field stddev 8.3596026222187e-006
field sum 0.35422393543197
field sqrsum 7.6776685670346e-006
field min 8.992e-006
field max 6.6151809e-005
statistic Basic.rack[15].node[8].app 	hops
field count 19974
field mean 4.2490237308501
field stddev 0.82993835614389
field sum 84870
field sqrsum 374372
field min 3
field max 5
statistic Basic.rack[15].node[9].app 	throughput
field count 20107
field mean 10054
field stddev 5804.5352670706
field sum 202155778
field sqrsum 2709898204090
field min 1
field max 20107
statistic Basic.rack[15].node[9].app 	"End-to-End Delay"
field count 20107
field mean 1.773134421286e-005
field stddev 8.3750930419482e-006
field sum 0.35652413808797
field sqrsum 7.7319309533035e-006
field min 8.992e-006
field max 6.8759785e-005
statistic Basic.rack[15].node[9].app 	hops
field count 20107
field mean 4.2470781319938
field stddev 0.82950525824339
field sum 85396
field sqrsum 376518
field min 3
field max 5
statistic Basic.rack[15].eps.queue[0] 	dropsum
field count 0
field mean nan
field stddev nan
field sum 0
field sqrsum 0
field min nan
field max nan
statistic Basic.rack[15].eps.queue[1] 	dropsum
field count 0
field mean nan
field stddev nan
field sum 0
field sqrsum 0
field min nan
field max nan
statistic Basic.rack[15].eps.queue[2] 	dropsum
field count 0
field mean nan
field stddev nan
field sum 0
field sqrsum 0
field min nan
field max nan
statistic Basic.rack[15].eps.queue[3] 	dropsum
field count 0
field mean nan
field stddev nan
field sum 0
field sqrsum 0
field min nan
field max nan
