version 2
run Basic-71-20180510-20:06:55-24348
attr configname Basic
attr datetime 20180510-20:06:55
attr experiment Basic
attr inifile omnetpp.ini
attr iterationvars "$0=exponential(0.05 ms), $1=5, $2=5"
attr iterationvarsf exponential(0.05_ms),5,5-
attr measurement "$0=exponential(0.05 ms), $1=5, $2=5"
attr network Networks.Basic
attr processid 24348
attr repetition 0
attr replication #0
attr resultdir results
attr runnumber 71
attr seedset 71
param **.frameCapacity 50
param **.packetLength "1024 bytes"
param **.pattern 5
param **.sendIaTime "exponential(0.05 ms)"
param **.tp 5

statistic Basic.rack[0].node[0].app 	throughput
field count 163040
field mean 81520.5
field stddev 47065.738281684
field sum 13291102320
field sqrsum 1.4446586452026e+015
field min 1
field max 163040
statistic Basic.rack[0].node[0].app 	"End-to-End Delay"
field count 163040
field mean 0.00017572047841177
field stddev 0.00020451822804211
field sum 28.649466800254
field sqrsum 0.011853845305943
field min 8.992e-006
field max 0.000667857681
statistic Basic.rack[0].node[0].app 	hops
field count 163040
field mean 4.1580471050049
field stddev 1.4605072066862
field sum 677928
field sqrsum 3166632
field min 3
field max 6
statistic Basic.rack[0].node[1].app 	throughput
field count 163636
field mean 81818.5
field stddev 47237.788661904
field sum 13388452066
field sqrsum 1.460559624332e+015
field min 1
field max 163636
statistic Basic.rack[0].node[1].app 	"End-to-End Delay"
field count 163636
field mean 0.00017520209909614
field stddev 0.00020438507642163
field sum 28.669370687696
field sqrsum 0.011858501236621
field min 8.992e-006
field max 0.000695719228
statistic Basic.rack[0].node[1].app 	hops
field count 163636
field mean 4.1543975653279
field stddev 1.4596478949869
field sum 679809
field sqrsum 3172833
field min 3
field max 6
statistic Basic.rack[0].node[2].app 	throughput
field count 162769
field mean 81385
field stddev 46987.507320209
field sum 13246955065
field sqrsum 1.4374668349683e+015
field min 1
field max 162769
statistic Basic.rack[0].node[2].app 	"End-to-End Delay"
field count 162769
field mean 0.00017491837800451
field stddev 0.00020436712000538
field sum 28.471289469417
field sqrsum 0.011778306997813
field min 8.992e-006
field max 0.00069685013
statistic Basic.rack[0].node[2].app 	hops
field count 162769
field mean 4.1520682685278
field stddev 1.4590944417187
field sum 675828
field sqrsum 3152610
field min 3
field max 6
statistic Basic.rack[0].node[3].app 	throughput
field count 162668
field mean 81334.5
field stddev 46958.351131614
field sum 13230520446
field sqrsum 1.4347926101134e+015
field min 1
field max 162668
statistic Basic.rack[0].node[3].app 	"End-to-End Delay"
field count 162668
field mean 0.00017540043351157
field stddev 0.00020443605093298
field sum 28.53203771846
field sqrsum 0.011803052473981
field min 8.992e-006
field max 0.000652376055
statistic Basic.rack[0].node[3].app 	hops
field count 162668
field mean 4.1559188039442
field stddev 1.4600072721197
field sum 676035
field sqrsum 3156291
field min 3
field max 6
statistic Basic.rack[0].node[4].app 	throughput
field count 163664
field mean 81832.5
field stddev 47245.871565672
field sum 13393034280
field sqrsum 1.461309505946e+015
field min 1
field max 163664
statistic Basic.rack[0].node[4].app 	"End-to-End Delay"
field count 163664
field mean 0.00017635471259871
field stddev 0.00020468985633889
field sum 28.862917682755
field sqrsum 0.011947253663074
field min 8.992e-006
field max 0.000683182255
statistic Basic.rack[0].node[4].app 	hops
field count 163664
field mean 4.1625586567602
field stddev 1.4615561542056
field sum 681261
field sqrsum 3185397
field min 3
field max 6
statistic Basic.rack[0].node[5].app 	throughput
field count 162931
field mean 81466
field stddev 47034.272692013
field sum 13273336846
field sqrsum 1.4417631215494e+015
field min 1
field max 162931
statistic Basic.rack[0].node[5].app 	"End-to-End Delay"
field count 162931
field mean 0.0001761021398902
field stddev 0.00020457035393649
field sum 28.692497754451
field sqrsum 0.011871272663955
field min 8.992e-006
field max 0.000699465125
statistic Basic.rack[0].node[5].app 	hops
field count 162931
field mean 4.1612707219621
field stddev 1.4612582186588
field sum 678000
field sqrsum 3169242
field min 3
field max 6
statistic Basic.rack[0].node[6].app 	throughput
field count 162879
field mean 81440
field stddev 47019.261585014
field sum 13264865760
field sqrsum 1.4403831350373e+015
field min 1
field max 162879
statistic Basic.rack[0].node[6].app 	"End-to-End Delay"
field count 162879
field mean 0.00017591140964359
field stddev 0.00020454410927215
field sum 28.652274491339
field sqrsum 0.011854799423548
field min 8.992e-006
field max 0.000683708894
statistic Basic.rack[0].node[6].app 	hops
field count 162879
field mean 4.1595785828744
field stddev 1.4608649360185
field sum 677508
field sqrsum 3165750
field min 3
field max 6
statistic Basic.rack[0].node[7].app 	throughput
field count 162979
field mean 81490
field stddev 47048.129098474
field sum 13281158710
field sqrsum 1.4430377373176e+015
field min 1
field max 162979
statistic Basic.rack[0].node[7].app 	"End-to-End Delay"
field count 162979
field mean 0.00017563151437316
field stddev 0.00020449701248063
field sum 28.624248581023
field sqrsum 0.011842901689962
field min 8.992e-006
field max 0.000699976353
statistic Basic.rack[0].node[7].app 	hops
field count 162979
field mean 4.1574865473466
field stddev 1.4603758490443
field sum 677583
field sqrsum 3164625
field min 3
field max 6
statistic Basic.rack[0].node[8].app 	throughput
field count 162873
field mean 81437
field stddev 47017.529534207
field sum 13263888501
field sqrsum 1.4402239625117e+015
field min 1
field max 162873
statistic Basic.rack[0].node[8].app 	"End-to-End Delay"
field count 162873
field mean 0.00017552750653789
field stddev 0.00020441578221568
field sum 28.588691572346
field sqrsum 0.011823840522009
field min 8.992e-006
field max 0.000696791431
statistic Basic.rack[0].node[8].app 	hops
field count 162873
field mean 4.1567663148588
field stddev 1.4602067417283
field sum 677025
field sqrsum 3161511
field min 3
field max 6
statistic Basic.rack[0].node[9].app 	throughput
field count 162722
field mean 81361.5
field stddev 46973.939588883
field sum 13239306003
field sqrsum 1.4362219807154e+015
field min 1
field max 162722
statistic Basic.rack[0].node[9].app 	"End-to-End Delay"
field count 162722
field mean 0.00017612097433752
field stddev 0.00020462857814589
field sum 28.65875718615
field sqrsum 0.011861001076407
field min 8.992e-006
field max 0.000679269971
statistic Basic.rack[0].node[9].app 	hops
field count 162722
field mean 4.1606236403191
field stddev 1.461108074724
field sum 677025
field sqrsum 3164229
field min 3
field max 6
statistic Basic.rack[0].eps.queue[0] 	dropsum
field count 0
field mean nan
field stddev nan
field sum 0
field sqrsum 0
field min nan
field max nan
statistic Basic.rack[0].eps.queue[1] 	dropsum
field count 0
field mean nan
field stddev nan
field sum 0
field sqrsum 0
field min nan
field max nan
statistic Basic.rack[0].eps.queue[2] 	dropsum
field count 0
field mean nan
field stddev nan
field sum 0
field sqrsum 0
field min nan
field max nan
statistic Basic.rack[0].eps.queue[3] 	dropsum
field count 0
field mean nan
field stddev nan
field sum 0
field sqrsum 0
field min nan
field max nan
statistic Basic.rack[1].node[0].app 	throughput
field count 162994
field mean 81497.5
field stddev 47052.459225493
field sum 13283603515
field sqrsum 1.4434362087504e+015
field min 1
field max 162994
statistic Basic.rack[1].node[0].app 	"End-to-End Delay"
field count 162994
field mean 0.00017589246219764
field stddev 0.00020450903754655
field sum 28.669415983442
field sqrsum 0.0118597446689
field min 8.992e-006
field max 0.000635483068
statistic Basic.rack[1].node[0].app 	hops
field count 162994
field mean 4.1592758015632
field stddev 1.4607943430257
field sum 677937
field sqrsum 3167541
field min 3
field max 6
statistic Basic.rack[1].node[1].app 	throughput
field count 163339
field mean 81670
field stddev 47152.052146929
field sum 13339896130
field sqrsum 1.4526213092841e+015
field min 1
field max 163339
statistic Basic.rack[1].node[1].app 	"End-to-End Delay"
field count 163339
field mean 0.00017569990037142
field stddev 0.00020452874100237
field sum 28.698646026767
field sqrsum 0.011875105426741
field min 8.992e-006
field max 0.000657231311
statistic Basic.rack[1].node[1].app 	hops
field count 163339
field mean 4.1574333135381
field stddev 1.4603633527251
field sum 679071
field sqrsum 3171537
field min 3
field max 6
statistic Basic.rack[1].node[2].app 	throughput
field count 162908
field mean 81454.5
field stddev 47027.633163918
field sum 13269589686
field sqrsum 1.4411526342412e+015
field min 1
field max 162908
statistic Basic.rack[1].node[2].app 	"End-to-End Delay"
field count 162908
field mean 0.00017547120870862
field stddev 0.00020446624800811
field sum 28.585663668304
field sqrsum 0.01182652374773
field min 8.992e-006
field max 0.000666506094
statistic Basic.rack[1].node[2].app 	hops
field count 162908
field mean 4.1558364230118
field stddev 1.459987848149
field sum 677019
field sqrsum 3160827
field min 3
field max 6
statistic Basic.rack[1].node[3].app 	throughput
field count 163494
field mean 81747.5
field stddev 47196.796792791
field sum 13365225765
field sqrsum 1.4567606025572e+015
field min 1
field max 163494
statistic Basic.rack[1].node[3].app 	"End-to-End Delay"
field count 163494
field mean 0.00017636190061014
field stddev 0.00020464011771792
field sum 28.834112578354
field sqrsum 0.011931929720646
field min 8.992e-006
field max 0.000667178676
statistic Basic.rack[1].node[3].app 	hops
field count 163494
field mean 4.1625013761973
field stddev 1.4615429327563
field sum 680544
field sqrsum 3182004
field min 3
field max 6
statistic Basic.rack[1].node[4].app 	throughput
field count 162970
field mean 81485.5
field stddev 47045.531022263
field sum 13279691935
field sqrsum 1.4427986896619e+015
field min 1
field max 162970
statistic Basic.rack[1].node[4].app 	"End-to-End Delay"
field count 162970
field mean 0.0001746071902212
field stddev 0.00020424137290609
field sum 28.455733790349
field sqrsum 0.011766752332394
field min 8.992e-006
field max 0.000674702721
statistic Basic.rack[1].node[4].app 	hops
field count 162970
field mean 4.1500767012334
field stddev 1.4586180925587
field sum 676338
field sqrsum 3153582
field min 3
field max 6
statistic Basic.rack[1].node[5].app 	throughput
field count 163145
field mean 81573
field stddev 47096.049170817
field sum 13308227085
field sqrsum 1.4474515745972e+015
field min 1
field max 163145
statistic Basic.rack[1].node[5].app 	"End-to-End Delay"
field count 163145
field mean 0.00017610093191226
field stddev 0.00020457790799506
field sum 28.729986536825
field sqrsum 0.011887299739965
field min 8.992e-006
field max 0.000646198757
statistic Basic.rack[1].node[5].app 	hops
field count 163145
field mean 4.1607036685157
field stddev 1.461126649299
field sum 678798
field sqrsum 3172572
field min 3
field max 6
statistic Basic.rack[1].node[6].app 	throughput
field count 162713
field mean 81357
field stddev 46971.341512671
field sum 13237841541
field sqrsum 1.4359836863877e+015
field min 1
field max 162713
statistic Basic.rack[1].node[6].app 	"End-to-End Delay"
field count 162713
field mean 0.00017547130265824
field stddev 0.00020442849958966
field sum 28.551462069431
field sqrsum 0.011809861296275
field min 8.992e-006
field max 0.000662014926
statistic Basic.rack[1].node[6].app 	hops
field count 162713
field mean 4.1559863071789
field stddev 1.4600231778758
field sum 676233
field sqrsum 3157263
field min 3
field max 6
statistic Basic.rack[1].node[7].app 	throughput
field count 162953
field mean 81477
field stddev 47040.623544974
field sum 13276921581
field sqrsum 1.442347227233e+015
field min 1
field max 162953
statistic Basic.rack[1].node[7].app 	"End-to-End Delay"
field count 162953
field mean 0.00017630089101201
field stddev 0.00020461138720015
field sum 28.72875909308
field sqrsum 0.011887024889261
field min 8.992e-006
field max 0.000659949662
statistic Basic.rack[1].node[7].app 	hops
field count 162953
field mean 4.1620344516517
field stddev 1.4614350464286
field sum 678216
field sqrsum 3170790
field min 3
field max 6
statistic Basic.rack[1].node[8].app 	throughput
field count 162732
field mean 81366.5
field stddev 46976.826340229
field sum 13240933278
field sqrsum 1.4364867831081e+015
field min 1
field max 162732
statistic Basic.rack[1].node[8].app 	"End-to-End Delay"
field count 162732
field mean 0.0001766766745113
field stddev 0.00020473812766798
field sum 28.750948596573
field sqrsum 0.011900931375662
field min 8.992e-006
field max 0.000654857866
statistic Basic.rack[1].node[8].app 	hops
field count 162732
field mean 4.1648661603127
field stddev 1.462087017181
field sum 677757
field sqrsum 3170637
field min 3
field max 6
statistic Basic.rack[1].node[9].app 	throughput
field count 162996
field mean 81498.5
field stddev 47053.036575762
field sum 13283929506
field sqrsum 1.4434893438165e+015
field min 1
field max 162996
statistic Basic.rack[1].node[9].app 	"End-to-End Delay"
field count 162996
field mean 0.00017543455611975
field stddev 0.0002044211579159
field sum 28.595130909295
field sqrsum 0.011827810756209
field min 8.992e-006
field max 0.000663557843
statistic Basic.rack[1].node[9].app 	hops
field count 162996
field mean 4.1557461532798
field stddev 1.4599665633298
field sum 677370
field sqrsum 3162402
field min 3
field max 6
statistic Basic.rack[1].eps.queue[0] 	dropsum
field count 0
field mean nan
field stddev nan
field sum 0
field sqrsum 0
field min nan
field max nan
statistic Basic.rack[1].eps.queue[1] 	dropsum
field count 0
field mean nan
field stddev nan
field sum 0
field sqrsum 0
field min nan
field max nan
statistic Basic.rack[1].eps.queue[2] 	dropsum
field count 0
field mean nan
field stddev nan
field sum 0
field sqrsum 0
field min nan
field max nan
statistic Basic.rack[1].eps.queue[3] 	dropsum
field count 0
field mean nan
field stddev nan
field sum 0
field sqrsum 0
field min nan
field max nan
statistic Basic.rack[2].node[0].app 	throughput
field count 159247
field mean 79624
field stddev 45970.793496161
field sum 12679883128
field sqrsum 1.3461597922841e+015
field min 1
field max 159247
statistic Basic.rack[2].node[0].app 	"End-to-End Delay"
field count 159247
field mean 0.0001618561526816
field stddev 0.00019293626199118
field sum 25.775106746087
field sqrsum 0.010099696604962
field min 8.496e-007
field max 0.0004192044
statistic Basic.rack[2].node[0].app 	hops
field count 159247
field mean 4.0577342116335
field stddev 0.82562537369613
field sum 646182
field sqrsum 2730586
field min 3
field max 5
statistic Basic.rack[2].node[1].app 	throughput
field count 159244
field mean 79622.5
field stddev 45969.927470757
field sum 12679405390
field sqrsum 1.3460837144186e+015
field min 1
field max 159244
statistic Basic.rack[2].node[1].app 	"End-to-End Delay"
field count 159244
field mean 0.00016216886339886
field stddev 0.00019297826893782
field sum 25.824418483088
field sqrsum 0.010118223414999
field min 8.496e-007
field max 0.000419197148
statistic Basic.rack[2].node[1].app 	hops
field count 159244
field mean 4.0570382557585
field stddev 0.82694690465352
field sum 646059
field sqrsum 2729983
field min 3
field max 5
statistic Basic.rack[2].node[2].app 	throughput
field count 159321
field mean 79661
field stddev 45992.155456121
field sum 12691670181
field sqrsum 1.3480372871615e+015
field min 1
field max 159321
statistic Basic.rack[2].node[2].app 	"End-to-End Delay"
field count 159321
field mean 0.00016243449712186
field stddev 0.00019308709219269
field sum 25.879226515951
field sqrsum 0.010143546987333
field min 8.496e-007
field max 0.000419196891
statistic Basic.rack[2].node[2].app 	hops
field count 159321
field mean 4.0586237846863
field stddev 0.8267528638201
field sum 646624
field sqrsum 2733302
field min 3
field max 5
statistic Basic.rack[2].node[3].app 	throughput
field count 158715
field mean 79358
field stddev 45817.218324556
field sum 12595304970
field sqrsum 1.3327134173107e+015
field min 1
field max 158715
statistic Basic.rack[2].node[3].app 	"End-to-End Delay"
field count 158715
field mean 0.00016133507040023
field stddev 0.00019270155152451
field sum 25.606295698573
field sqrsum 0.010024861412894
field min 8.496e-007
field max 0.000419165339
statistic Basic.rack[2].node[3].app 	hops
field count 158715
field mean 4.0546451186088
field stddev 0.82604694768282
field sum 643533
field sqrsum 2717597
field min 3
field max 5
statistic Basic.rack[2].node[4].app 	throughput
field count 158538
field mean 79269.5
field stddev 45766.122825732
field sum 12567227991
field sqrsum 1.3282596499008e+015
field min 1
field max 158538
statistic Basic.rack[2].node[4].app 	"End-to-End Delay"
field count 158538
field mean 0.00016192848575845
field stddev 0.00019299011610624
field sum 25.671818275172
field sqrsum 0.010061738540787
field min 8.496e-007
field max 0.000419178583
statistic Basic.rack[2].node[4].app 	hops
field count 158538
field mean 4.0574499489081
field stddev 0.82614796380378
field sum 643260
field sqrsum 2718200
field min 3
field max 5
statistic Basic.rack[2].node[5].app 	throughput
field count 159149
field mean 79575
field stddev 45942.50333297
field sum 12664281675
field sqrsum 1.3436760642903e+015
field min 1
field max 159149
statistic Basic.rack[2].node[5].app 	"End-to-End Delay"
field count 159149
field mean 0.00016245402533105
field stddev 0.00019299926302234
field sum 25.854395677412
field sqrsum 0.010128209229015
field min 8.496e-007
field max 0.000419193519
statistic Basic.rack[2].node[5].app 	hops
field count 159149
field mean 4.0571854048722
field stddev 0.82754164046397
field sum 645697
field sqrsum 2728701
field min 3
field max 5
statistic Basic.rack[2].node[6].app 	throughput
field count 159180
field mean 79590.5
field stddev 45951.452262143
field sum 12669215790
field sqrsum 1.3444614027067e+015
field min 1
field max 159180
statistic Basic.rack[2].node[6].app 	"End-to-End Delay"
field count 159180
field mean 0.00016218887567254
field stddev 0.00019304175285584
field sum 25.817225229555
field sqrsum 0.010119091006109
field min 8.496e-007
field max 0.000419399405
statistic Basic.rack[2].node[6].app 	hops
field count 159180
field mean 4.0581605729363
field stddev 0.82629480941566
field sum 645978
field sqrsum 2730164
field min 3
field max 5
statistic Basic.rack[2].node[7].app 	throughput
field count 158717
field mean 79359
field stddev 45817.795674825
field sum 12595622403
field sqrsum 1.3327637991654e+015
field min 1
field max 158717
statistic Basic.rack[2].node[7].app 	"End-to-End Delay"
field count 158717
field mean 0.00016270786873636
field stddev 0.00019312973607163
field sum 25.824504802229
field sqrsum 0.010121813292436
field min 8.496e-007
field max 0.000419156724
statistic Basic.rack[2].node[7].app 	hops
field count 158717
field mean 4.0599620708557
field stddev 0.82664895984205
field sum 644385
field sqrsum 2724637
field min 3
field max 5
statistic Basic.rack[2].node[8].app 	throughput
field count 159040
field mean 79520.5
field stddev 45911.037743299
field sum 12646940320
field sqrsum 1.3409171413086e+015
field min 1
field max 159040
statistic Basic.rack[2].node[8].app 	"End-to-End Delay"
field count 159040
field mean 0.00016215682663079
field stddev 0.00019296714840786
field sum 25.789421707361
field sqrsum 0.010103957939184
field min 8.496e-007
field max 0.000419283166
statistic Basic.rack[2].node[8].app 	hops
field count 159040
field mean 4.0574132293763
field stddev 0.8266325956641
field sum 645291
field sqrsum 2726887
field min 3
field max 5
statistic Basic.rack[2].node[9].app 	throughput
field count 158468
field mean 79234.5
field stddev 45745.91556631
field sum 12556132746
field sqrsum 1.3265010147063e+015
field min 1
field max 158468
statistic Basic.rack[2].node[9].app 	"End-to-End Delay"
field count 158468
field mean 0.00016149072303849
field stddev 0.00019280123847936
field sum 25.591111898464
field sqrsum 0.010023312810492
field min 8.496e-007
field max 0.00041922304
statistic Basic.rack[2].node[9].app 	hops
field count 158468
field mean 4.0553676452028
field stddev 0.82595405836333
field sum 642646
field sqrsum 2714272
field min 3
field max 5
statistic Basic.rack[2].eps.queue[0] 	dropsum
field count 0
field mean nan
field stddev nan
field sum 0
field sqrsum 0
field min nan
field max nan
statistic Basic.rack[2].eps.queue[1] 	dropsum
field count 780671
field mean 390336
field stddev 225360.45033613
field sum 304723995456
field sqrsum 1.5859289241219e+017
field min 1
field max 780671
statistic Basic.rack[2].eps.queue[2] 	dropsum
field count 0
field mean nan
field stddev nan
field sum 0
field sqrsum 0
field min nan
field max nan
statistic Basic.rack[2].eps.queue[3] 	dropsum
field count 0
field mean nan
field stddev nan
field sum 0
field sqrsum 0
field min nan
field max nan
statistic Basic.rack[3].node[0].app 	throughput
field count 158962
field mean 79481.5
field stddev 45888.521082801
field sum 12634538203
field sqrsum 1.3389451860629e+015
field min 1
field max 158962
statistic Basic.rack[3].node[0].app 	"End-to-End Delay"
field count 158962
field mean 0.00016194043256549
field stddev 0.00019286655786092
field sum 25.742375041475
field sqrsum 0.010081684600061
field min 8.496e-007
field max 0.000419236676
statistic Basic.rack[3].node[0].app 	hops
field count 158962
field mean 4.0569003912885
field stddev 0.82604973402117
field sum 644893
field sqrsum 2724735
field min 3
field max 5
statistic Basic.rack[3].node[1].app 	throughput
field count 158566
field mean 79283.5
field stddev 45774.205729501
field sum 12571667461
field sqrsum 1.3289635389698e+015
field min 1
field max 158566
statistic Basic.rack[3].node[1].app 	"End-to-End Delay"
field count 158566
field mean 0.00016122293871033
field stddev 0.00019276245661832
field sum 25.564476499542
field sqrsum 0.010013437558574
field min 8.496e-007
field max 0.000419168882
statistic Basic.rack[3].node[1].app 	hops
field count 158566
field mean 4.0556865910725
field stddev 0.82498082888311
field sum 643094
field sqrsum 2716106
field min 3
field max 5
statistic Basic.rack[3].node[2].app 	throughput
field count 159513
field mean 79757
field stddev 46047.581081963
field sum 12722278341
field sqrsum 1.3529167640981e+015
field min 1
field max 159513
statistic Basic.rack[3].node[2].app 	"End-to-End Delay"
field count 159513
field mean 0.00016196693341511
field stddev 0.00019294574663798
field sum 25.835831449845
field sqrsum 0.010122872881632
field min 8.496e-007
field max 0.000419187377
statistic Basic.rack[3].node[2].app 	hops
field count 159513
field mean 4.058716217487
field stddev 0.82517555054726
field sum 647418
field sqrsum 2736300
field min 3
field max 5
statistic Basic.rack[3].node[3].app 	throughput
field count 159191
field mean 79596
field stddev 45954.627688623
field sum 12670966836
field sqrsum 1.3447401447154e+015
field min 1
field max 159191
statistic Basic.rack[3].node[3].app 	"End-to-End Delay"
field count 159191
field mean 0.00016186723665965
field stddev 0.00019288093722614
field sum 25.767807271086
field sqrsum 0.010093318233671
field min 8.496e-007
field max 0.000419226164
statistic Basic.rack[3].node[3].app 	hops
field count 159191
field mean 4.057861311255
field stddev 0.82527919106973
field sum 645975
field sqrsum 2729699
field min 3
field max 5
statistic Basic.rack[3].node[4].app 	throughput
field count 158869
field mean 79435
field stddev 45861.674295283
field sum 12619759015
field sqrsum 1.3365965365557e+015
field min 1
field max 158869
statistic Basic.rack[3].node[4].app 	"End-to-End Delay"
field count 158869
field mean 0.00016270672683551
field stddev 0.0001930751002667
field sum 25.84905498563
field sqrsum 0.010128095533786
field min 8.496e-007
field max 0.000419278114
statistic Basic.rack[3].node[4].app 	hops
field count 158869
field mean 4.0596466270953
field stddev 0.82659024455559
field sum 644952
field sqrsum 2726824
field min 3
field max 5
statistic Basic.rack[3].node[5].app 	throughput
field count 159171
field mean 79586
field stddev 45948.854185932
field sum 12667783206
field sqrsum 1.3442333697159e+015
field min 1
field max 159171
statistic Basic.rack[3].node[5].app 	"End-to-End Delay"
field count 159171
field mean 0.00016211714902227
field stddev 0.00019296103497101
field sum 25.804348727024
field sqrsum 0.010109857023091
field min 8.496e-007
field max 0.000419199247
statistic Basic.rack[3].node[5].app 	hops
field count 159171
field mean 4.0580005151692
field stddev 0.82597972327437
field sum 645916
field sqrsum 2729720
field min 3
field max 5
statistic Basic.rack[3].node[6].app 	throughput
field count 159053
field mean 79527
field stddev 45914.790520049
field sum 12649007931
field sqrsum 1.3412459886355e+015
field min 1
field max 159053
statistic Basic.rack[3].node[6].app 	"End-to-End Delay"
field count 159053
field mean 0.00016187760215798
field stddev 0.00019295428697929
field sum 25.747118256034
field sqrsum 0.010089603537648
field min 8.496e-007
field max 0.000419228241
statistic Basic.rack[3].node[6].app 	hops
field count 159053
field mean 4.059357572633
field stddev 0.82459537386443
field sum 645653
field sqrsum 2729085
field min 3
field max 5
statistic Basic.rack[3].node[7].app 	throughput
field count 159460
field mean 79730.5
field stddev 46032.28129983
field sum 12713825530
field sqrsum 1.3515686506177e+015
field min 1
field max 159460
statistic Basic.rack[3].node[7].app 	"End-to-End Delay"
field count 159460
field mean 0.00016181633205076
field stddev 0.00019291171918264
field sum 25.803232308815
field sqrsum 0.01010964015306
field min 8.496e-007
field max 0.000419159776
statistic Basic.rack[3].node[7].app 	hops
field count 159460
field mean 4.0572808227769
field stddev 0.82573327237155
field sum 646974
field sqrsum 2733680
field min 3
field max 5
statistic Basic.rack[3].node[8].app 	throughput
field count 159474
field mean 79737.5
field stddev 46036.322751714
field sum 12716058075
field sqrsum 1.3519246689877e+015
field min 1
field max 159474
statistic Basic.rack[3].node[8].app 	"End-to-End Delay"
field count 159474
field mean 0.00016233873237175
field stddev 0.00019296416157316
field sum 25.888807006253
field sqrsum 0.010140760002921
field min 8.496e-007
field max 0.000419175222
statistic Basic.rack[3].node[8].app 	hops
field count 159474
field mean 4.0571190288072
field stddev 0.82721415017317
field sum 647005
field sqrsum 2734101
field min 3
field max 5
statistic Basic.rack[3].node[9].app 	throughput
field count 159432
field mean 79716.5
field stddev 46024.198396061
field sum 12709361028
field sqrsum 1.3508568013977e+015
field min 1
field max 159432
statistic Basic.rack[3].node[9].app 	"End-to-End Delay"
field count 159432
field mean 0.00016106742523725
field stddev 0.00019270430120642
field sum 25.679301740425
field sqrsum 0.01005656086053
field min 8.496e-007
field max 0.000419230902
statistic Basic.rack[3].node[9].app 	hops
field count 159432
field mean 4.0552712128055
field stddev 0.82476513789098
field sum 646540
field sqrsum 2730346
field min 3
field max 5
statistic Basic.rack[3].eps.queue[0] 	dropsum
field count 780909
field mean 390455
field stddev 225429.15501816
field sum 304909823595
field sqrsum 1.5873798525887e+017
field min 1
field max 780909
statistic Basic.rack[3].eps.queue[1] 	dropsum
field count 0
field mean nan
field stddev nan
field sum 0
field sqrsum 0
field min nan
field max nan
statistic Basic.rack[3].eps.queue[2] 	dropsum
field count 0
field mean nan
field stddev nan
field sum 0
field sqrsum 0
field min nan
field max nan
statistic Basic.rack[3].eps.queue[3] 	dropsum
field count 0
field mean nan
field stddev nan
field sum 0
field sqrsum 0
field min nan
field max nan
statistic Basic.rack[4].node[0].app 	throughput
field count 162628
field mean 81314.5
field stddev 46946.804126231
field sum 13224014506
field sqrsum 1.433734428726e+015
field min 1
field max 162628
statistic Basic.rack[4].node[0].app 	"End-to-End Delay"
field count 162628
field mean 0.00017596835787621
field stddev 0.00020461268725033
field sum 28.617382104692
field sqrsum 0.011844352927223
field min 8.992e-006
field max 0.000634661339
statistic Basic.rack[4].node[0].app 	hops
field count 162628
field mean 4.1597633863787
field stddev 1.4609079951433
field sum 676494
field sqrsum 3161142
field min 3
field max 6
statistic Basic.rack[4].node[1].app 	throughput
field count 162748
field mean 81374.5
field stddev 46981.445142382
field sum 13243537126
field sqrsum 1.4369105346339e+015
field min 1
field max 162748
statistic Basic.rack[4].node[1].app 	"End-to-End Delay"
field count 162748
field mean 0.00017587862939867
field stddev 0.00020455179487378
field sum 28.623895177375
field sqrsum 0.011843899764473
field min 8.992e-006
field max 0.000596289549
statistic Basic.rack[4].node[1].app 	hops
field count 162748
field mean 4.1592031852926
field stddev 1.4607774103493
field sum 676902
field sqrsum 3162654
field min 3
field max 6
statistic Basic.rack[4].node[2].app 	throughput
field count 163017
field mean 81509
field stddev 47059.098753589
field sum 13287352653
field sqrsum 1.4440473407403e+015
field min 1
field max 163017
statistic Basic.rack[4].node[2].app 	"End-to-End Delay"
field count 163017
field mean 0.00017621534707361
field stddev 0.00020467348627289
field sum 28.726097233899
field sqrsum 0.011890920919163
field min 8.992e-006
field max 0.000626333545
statistic Basic.rack[4].node[2].app 	hops
field count 163017
field mean 4.1615782403062
field stddev 1.4613294674122
field sum 678408
field sqrsum 3171366
field min 3
field max 6
statistic Basic.rack[4].node[3].app 	throughput
field count 162494
field mean 81247.5
field stddev 46908.121658195
field sum 13202231265
field sqrsum 1.4301933121937e+015
field min 1
field max 162494
statistic Basic.rack[4].node[3].app 	"End-to-End Delay"
field count 162494
field mean 0.00017603054386481
field stddev 0.00020461360172398
field sum 28.603907194769
field sqrsum 0.011838211249771
field min 8.992e-006
field max 0.000623044511
statistic Basic.rack[4].node[3].app 	hops
field count 162494
field mean 4.1603320737996
field stddev 1.4610403268339
field sum 676029
field sqrsum 3159369
field min 3
field max 6
statistic Basic.rack[4].node[4].app 	throughput
field count 163426
field mean 81713.5
field stddev 47177.166883638
field sum 13354110451
field sqrsum 1.4549436877469e+015
field min 1
field max 163426
statistic Basic.rack[4].node[4].app 	"End-to-End Delay"
field count 163426
field mean 0.00017603152603056
field stddev 0.00020461783927162
field sum 28.768128173071
field sqrsum 0.011906450603066
field min 8.992e-006
field max 0.000630694492
statistic Basic.rack[4].node[4].app 	hops
field count 163426
field mean 4.1599929019862
field stddev 1.460961407326
field sum 679851
field sqrsum 3176991
field min 3
field max 6
statistic Basic.rack[4].node[5].app 	throughput
field count 163112
field mean 81556.5
field stddev 47086.522891375
field sum 13302843828
field sqrsum 1.4465734092631e+015
field min 1
field max 163112
statistic Basic.rack[4].node[5].app 	"End-to-End Delay"
field count 163112
field mean 0.00017622255387401
field stddev 0.00020468463048507
field sum 28.744013207497
field sqrsum 0.011899008916547
field min 8.992e-006
field max 0.000621781301
statistic Basic.rack[4].node[5].app 	hops
field count 163112
field mean 4.1614350875472
field stddev 1.4612963052008
field sum 678780
field sqrsum 3173004
field min 3
field max 6
statistic Basic.rack[4].node[6].app 	throughput
field count 162412
field mean 81206.5
field stddev 46884.450297158
field sum 13188910078
field sqrsum 1.4280292386954e+015
field min 1
field max 162412
statistic Basic.rack[4].node[6].app 	"End-to-End Delay"
field count 162412
field mean 0.00017557834473489
field stddev 0.00020446231606483
field sum 28.516030125083
field sqrsum 0.011796363024351
field min 8.992e-006
field max 0.000620002407
statistic Basic.rack[4].node[6].app 	hops
field count 162412
field mean 4.1573529049578
field stddev 1.460344513839
field sum 675204
field sqrsum 3153420
field min 3
field max 6
statistic Basic.rack[4].node[7].app 	throughput
field count 163326
field mean 81663.5
field stddev 47148.299370179
field sum 13337772801
field sqrsum 1.4522744995884e+015
field min 1
field max 163326
statistic Basic.rack[4].node[7].app 	"End-to-End Delay"
field count 163326
field mean 0.00017618396259308
field stddev 0.0002046859547908
field sum 28.775421874477
field sqrsum 0.011912487596107
field min 8.992e-006
field max 0.000624621907
statistic Basic.rack[4].node[7].app 	hops
field count 163326
field mean 4.1608868153264
field stddev 1.4611691620377
field sum 679581
field sqrsum 3176361
field min 3
field max 6
statistic Basic.rack[4].node[8].app 	throughput
field count 163080
field mean 81540.5
field stddev 47077.285287068
field sum 13297624740
field sqrsum 1.4457221942744e+015
field min 1
field max 163080
statistic Basic.rack[4].node[8].app 	"End-to-End Delay"
field count 163080
field mean 0.00017584157974866
field stddev 0.00020461233084278
field sum 28.676244825412
field sqrsum 0.011869975188694
field min 8.992e-006
field max 0.000627709338
statistic Basic.rack[4].node[8].app 	hops
field count 163080
field mean 4.1588300220751
field stddev 1.4606902920917
field sum 678222
field sqrsum 3168558
field min 3
field max 6
statistic Basic.rack[4].node[9].app 	throughput
field count 163519
field mean 81760
field stddev 47204.013671156
field sum 13369313440
field sqrsum 1.4574289660347e+015
field min 1
field max 163519
statistic Basic.rack[4].node[9].app 	"End-to-End Delay"
field count 163519
field mean 0.00017630478496631
field stddev 0.0002046647628342
field sum 28.829182132905
field sqrsum 0.011932109986037
field min 8.992e-006
field max 0.000638603143
statistic Basic.rack[4].node[9].app 	hops
field count 163519
field mean 4.161864982051
field stddev 1.4613958294618
field sum 680544
field sqrsum 3181554
field min 3
field max 6
statistic Basic.rack[4].eps.queue[0] 	dropsum
field count 0
field mean nan
field stddev nan
field sum 0
field sqrsum 0
field min nan
field max nan
statistic Basic.rack[4].eps.queue[1] 	dropsum
field count 0
field mean nan
field stddev nan
field sum 0
field sqrsum 0
field min nan
field max nan
statistic Basic.rack[4].eps.queue[2] 	dropsum
field count 0
field mean nan
field stddev nan
field sum 0
field sqrsum 0
field min nan
field max nan
statistic Basic.rack[4].eps.queue[3] 	dropsum
field count 0
field mean nan
field stddev nan
field sum 0
field sqrsum 0
field min nan
field max nan
statistic Basic.rack[5].node[0].app 	throughput
field count 162708
field mean 81354.5
field stddev 46969.898136998
field sum 13237027986
field sqrsum 1.4358513120401e+015
field min 1
field max 162708
statistic Basic.rack[5].node[0].app 	"End-to-End Delay"
field count 162708
field mean 0.00017566429124758
field stddev 0.00020454783882586
field sum 28.58198550031
field sqrsum 0.011828465552616
field min 8.992e-006
field max 0.000642529349
statistic Basic.rack[5].node[0].app 	hops
field count 162708
field mean 4.157607493178
field stddev 1.4604042177756
field sum 676476
field sqrsum 3159540
field min 3
field max 6
statistic Basic.rack[5].node[1].app 	throughput
field count 162905
field mean 81453
field stddev 47026.767138514
field sum 13269100965
field sqrsum 1.4410730181692e+015
field min 1
field max 162905
statistic Basic.rack[5].node[1].app 	"End-to-End Delay"
field count 162905
field mean 0.00017651279578987
field stddev 0.00020465545735066
field sum 28.754816998148
field sqrsum 0.011898640854987
field min 8.992e-006
field max 0.000631716644
statistic Basic.rack[5].node[1].app 	hops
field count 162905
field mean 4.1640710843743
field stddev 1.461904539542
field sum 678348
field sqrsum 3172842
field min 3
field max 6
statistic Basic.rack[5].node[2].app 	throughput
field count 163579
field mean 81790
field stddev 47221.334179232
field sum 13379126410
field sqrsum 1.4590338723897e+015
field min 1
field max 163579
statistic Basic.rack[5].node[2].app 	"End-to-End Delay"
field count 163579
field mean 0.00017587188184018
field stddev 0.00020456172086158
field sum 28.768946559535
field sqrsum 0.011904651583244
field min 8.992e-006
field max 0.000605912258
statistic Basic.rack[5].node[2].app 	hops
field count 163579
field mean 4.1591280054286
field stddev 1.4607598460722
field sum 680346
field sqrsum 3178692
field min 3
field max 6
statistic Basic.rack[5].node[3].app 	throughput
field count 163273
field mean 81637
field stddev 47132.999588045
field sum 13329117901
field sqrsum 1.4508611544059e+015
field min 1
field max 163273
statistic Basic.rack[5].node[3].app 	"End-to-End Delay"
field count 163273
field mean 0.00017574663448532
field stddev 0.00020447858167983
field sum 28.694680252322
field sqrsum 0.011869639136982
field min 8.992e-006
field max 0.000621305907
statistic Basic.rack[5].node[3].app 	hops
field count 163273
field mean 4.1589485095515
field stddev 1.4607179567394
field sum 679044
field sqrsum 3172482
field min 3
field max 6
statistic Basic.rack[5].node[4].app 	throughput
field count 162522
field mean 81261.5
field stddev 46916.204561963
field sum 13206781503
field sqrsum 1.4309327645475e+015
field min 1
field max 162522
statistic Basic.rack[5].node[4].app 	"End-to-End Delay"
field count 162522
field mean 0.00017575148280911
field stddev 0.00020451197692302
field sum 28.563482489102
field sqrsum 0.011817539394331
field min 8.992e-006
field max 0.000604131553
statistic Basic.rack[5].node[4].app 	hops
field count 162522
field mean 4.1582493447041
field stddev 1.4605545574655
field sum 675807
field sqrsum 3156867
field min 3
field max 6
statistic Basic.rack[5].node[5].app 	throughput
field count 163885
field mean 81943
field stddev 47309.668770418
field sum 13429228555
field sqrsum 1.4672372242336e+015
field min 1
field max 163885
statistic Basic.rack[5].node[5].app 	"End-to-End Delay"
field count 163885
field mean 0.00017665582005162
field stddev 0.00020471541308228
field sum 28.951239069161
field sqrsum 0.011982521162798
field min 8.992e-006
field max 0.000636998688
statistic Basic.rack[5].node[5].app 	hops
field count 163885
field mean 4.1647984867438
field stddev 1.4620714719625
field sum 682548
field sqrsum 3193002
field min 3
field max 6
statistic Basic.rack[5].node[6].app 	throughput
field count 163427
field mean 81714
field stddev 47177.455558773
field sum 13354273878
field sqrsum 1.4549703961312e+015
field min 1
field max 163427
statistic Basic.rack[5].node[6].app 	"End-to-End Delay"
field count 163427
field mean 0.00017536517086469
field stddev 0.00020428766681827
field sum 28.659403778903
field sqrsum 0.011846192173305
field min 8.992e-006
field max 0.000626497825
statistic Basic.rack[5].node[6].app 	hops
field count 163427
field mean 4.1564245810056
field stddev 1.4601263564682
field sum 679272
field sqrsum 3171762
field min 3
field max 6
statistic Basic.rack[5].node[7].app 	throughput
field count 163044
field mean 81522.5
field stddev 47066.892982223
field sum 13291754490
field sqrsum 1.4447649766299e+015
field min 1
field max 163044
statistic Basic.rack[5].node[7].app 	"End-to-End Delay"
field count 163044
field mean 0.00017514528797856
field stddev 0.00020434885699547
field sum 28.556388333176
field sqrsum 0.011809940694745
field min 8.992e-006
field max 0.000635077133
statistic Basic.rack[5].node[7].app 	hops
field count 163044
field mean 4.153547508648
field stddev 1.4594463796572
field sum 677211
field sqrsum 3160107
field min 3
field max 6
statistic Basic.rack[5].node[8].app 	throughput
field count 163295
field mean 81648
field stddev 47139.350441006
field sum 13332710160
field sqrsum 1.4514477146215e+015
field min 1
field max 163295
statistic Basic.rack[5].node[8].app 	"End-to-End Delay"
field count 163295
field mean 0.00017523784021868
field stddev 0.00020436516438838
field sum 28.61546311851
field sqrsum 0.011834505526872
field min 8.992e-006
field max 0.000622860885
statistic Basic.rack[5].node[8].app 	hops
field count 163295
field mean 4.1549894362963
field stddev 1.4597879163826
field sum 678489
field sqrsum 3167091
field min 3
field max 6
statistic Basic.rack[5].node[9].app 	throughput
field count 162356
field mean 81178.5
field stddev 46868.28448962
field sum 13179816546
field sqrsum 1.4265525900338e+015
field min 1
field max 162356
statistic Basic.rack[5].node[9].app 	"End-to-End Delay"
field count 162356
field mean 0.00017497709318714
field stddev 0.00020433911168137
field sum 28.408580941491
field sqrsum 0.011749898307636
field min 8.992e-006
field max 0.000616527637
statistic Basic.rack[5].node[9].app 	hops
field count 162356
field mean 4.1529847988371
field stddev 1.4593127036302
field sum 674262
field sqrsum 3145950
field min 3
field max 6
statistic Basic.rack[5].eps.queue[0] 	dropsum
field count 0
field mean nan
field stddev nan
field sum 0
field sqrsum 0
field min nan
field max nan
statistic Basic.rack[5].eps.queue[1] 	dropsum
field count 0
field mean nan
field stddev nan
field sum 0
field sqrsum 0
field min nan
field max nan
statistic Basic.rack[5].eps.queue[2] 	dropsum
field count 0
field mean nan
field stddev nan
field sum 0
field sqrsum 0
field min nan
field max nan
statistic Basic.rack[5].eps.queue[3] 	dropsum
field count 0
field mean nan
field stddev nan
field sum 0
field sqrsum 0
field min nan
field max nan
statistic Basic.rack[6].node[0].app 	throughput
field count 158815
field mean 79408
field stddev 45846.085838015
field sum 12611181520
field sqrsum 1.335234065793e+015
field min 1
field max 158815
statistic Basic.rack[6].node[0].app 	"End-to-End Delay"
field count 158815
field mean 0.00016218193778112
field stddev 0.00019298046160586
field sum 25.756924448709
field sqrsum 0.010091772918377
field min 8.496e-007
field max 0.000419196427
statistic Basic.rack[6].node[0].app 	hops
field count 158815
field mean 4.0588987186349
field stddev 0.82568770186039
field sum 644614
field sqrsum 2724696
field min 3
field max 5
statistic Basic.rack[6].node[1].app 	throughput
field count 158912
field mean 79456.5
field stddev 45874.087326071
field sum 12626591328
field sqrsum 1.3376821296072e+015
field min 1
field max 158912
statistic Basic.rack[6].node[1].app 	"End-to-End Delay"
field count 158912
field mean 0.00016204435678971
field stddev 0.00019299546675859
field sum 25.750792826166
field sqrsum 0.010091768435183
field min 8.496e-007
field max 0.000419216835
statistic Basic.rack[6].node[1].app 	hops
field count 158912
field mean 4.0594417035844
field stddev 0.82519720629917
field sum 645094
field sqrsum 2726932
field min 3
field max 5
statistic Basic.rack[6].node[2].app 	throughput
field count 159472
field mean 79736.5
field stddev 46035.745401445
field sum 12715739128
field sqrsum 1.3518738053933e+015
field min 1
field max 159472
statistic Basic.rack[6].node[2].app 	"End-to-End Delay"
field count 159472
field mean 0.00016132842751717
field stddev 0.00019273640528971
field sum 25.727366993019
field sqrsum 0.010074476235683
field min 8.496e-007
field max 0.000419217382
statistic Basic.rack[6].node[2].app 	hops
field count 159472
field mean 4.0556524029297
field stddev 0.82523230952303
field sum 646763
field sqrsum 2731647
field min 3
field max 5
statistic Basic.rack[6].node[3].app 	throughput
field count 158857
field mean 79429
field stddev 45858.210193668
field sum 12617852653
field sqrsum 1.336293685216e+015
field min 1
field max 158857
statistic Basic.rack[6].node[3].app 	"End-to-End Delay"
field count 158857
field mean 0.00016296585276018
field stddev 0.00019318492005171
field sum 25.888266471924
field sqrsum 0.010147475002886
field min 8.496e-007
field max 0.000419186709
statistic Basic.rack[6].node[3].app 	hops
field count 158857
field mean 4.0597770321736
field stddev 0.82747991069823
field sum 644924
field sqrsum 2727020
field min 3
field max 5
statistic Basic.rack[6].node[4].app 	throughput
field count 159346
field mean 79673.5
field stddev 45999.372334486
field sum 12695653531
field sqrsum 1.3486719702517e+015
field min 1
field max 159346
statistic Basic.rack[6].node[4].app 	"End-to-End Delay"
field count 159346
field mean 0.00016160381767008
field stddev 0.00019277549735647
field sum 25.750921930456
field sqrsum 0.010083088706442
field min 8.496e-007
field max 0.000419215795
statistic Basic.rack[6].node[4].app 	hops
field count 159346
field mean 4.0550123630339
field stddev 0.82637407262967
field sum 646150
field sqrsum 2728962
field min 3
field max 5
statistic Basic.rack[6].node[5].app 	throughput
field count 159810
field mean 79905.5
field stddev 46133.317596939
field sum 12769697955
field sqrsum 1.3604878766917e+015
field min 1
field max 159810
statistic Basic.rack[6].node[5].app 	"End-to-End Delay"
field count 159810
field mean 0.00016141097511377
field stddev 0.00019280490451936
field sum 25.795087932932
field sqrsum 0.010104307106814
field min 8.496e-007
field max 0.000419196027
statistic Basic.rack[6].node[5].app 	hops
field count 159810
field mean 4.0562480445529
field stddev 0.82503559362645
field sum 648229
field sqrsum 2738157
field min 3
field max 5
statistic Basic.rack[6].node[6].app 	throughput
field count 159233
field mean 79617
field stddev 45966.752044277
field sum 12677653761
field sqrsum 1.3458047867681e+015
field min 1
field max 159233
statistic Basic.rack[6].node[6].app 	"End-to-End Delay"
field count 159233
field mean 0.00016200355386307
field stddev 0.00019294430423639
field sum 25.796311892278
field sqrsum 0.010106904205587
field min 8.496e-007
field max 0.000419184502
statistic Basic.rack[6].node[6].app 	hops
field count 159233
field mean 4.0570735965535
field stddev 0.82639960916198
field sum 646020
field sqrsum 2729696
field min 3
field max 5
statistic Basic.rack[6].node[7].app 	throughput
field count 159131
field mean 79566
field stddev 45937.307180548
field sum 12661417146
field sqrsum 1.3432202017125e+015
field min 1
field max 159131
statistic Basic.rack[6].node[7].app 	"End-to-End Delay"
field count 159131
field mean 0.00016166335072042
field stddev 0.00019289004483683
field sum 25.725650663491
field sqrsum 0.010079576273892
field min 8.496e-007
field max 0.00041926284
statistic Basic.rack[6].node[7].app 	hops
field count 159131
field mean 4.0572421464077
field stddev 0.82525789645799
field sum 645633
field sqrsum 2727865
field min 3
field max 5
statistic Basic.rack[6].node[8].app 	throughput
field count 159052
field mean 79526.5
field stddev 45914.501844915
field sum 12648848878
field sqrsum 1.3412206907787e+015
field min 1
field max 159052
statistic Basic.rack[6].node[8].app 	"End-to-End Delay"
field count 159052
field mean 0.0001612660274889
field stddev 0.00019269845674252
field sum 25.649684204165
field sqrsum 0.010042414987129
field min 8.496e-007
field max 0.000419216069
statistic Basic.rack[6].node[8].app 	hops
field count 159052
field mean 4.0546173578452
field stddev 0.82565686387096
field sum 644895
field sqrsum 2723229
field min 3
field max 5
statistic Basic.rack[6].node[9].app 	throughput
field count 159023
field mean 79512
field stddev 45906.130266011
field sum 12644236776
field sqrsum 1.3404871912988e+015
field min 1
field max 159023
statistic Basic.rack[6].node[9].app 	"End-to-End Delay"
field count 159023
field mean 0.00016141378752631
field stddev 0.0001927295593109
field sum 25.668504733796
field sqrsum 0.010050072354361
field min 8.496e-007
field max 0.000419229878
statistic Basic.rack[6].node[9].app 	hops
field count 159023
field mean 4.0534639643322
field stddev 0.8268315254579
field sum 644594
field sqrsum 2721554
field min 3
field max 5
statistic Basic.rack[6].eps.queue[0] 	dropsum
field count 0
field mean nan
field stddev nan
field sum 0
field sqrsum 0
field min nan
field max nan
statistic Basic.rack[6].eps.queue[1] 	dropsum
field count 780582
field mean 390291.5
field stddev 225334.75824915
field sum 304654519653
field sqrsum 1.5853865772446e+017
field min 1
field max 780582
statistic Basic.rack[6].eps.queue[2] 	dropsum
field count 0
field mean nan
field stddev nan
field sum 0
field sqrsum 0
field min nan
field max nan
statistic Basic.rack[6].eps.queue[3] 	dropsum
field count 0
field mean nan
field stddev nan
field sum 0
field sqrsum 0
field min nan
field max nan
statistic Basic.rack[7].node[0].app 	throughput
field count 158827
field mean 79414
field stddev 45849.54993963
field sum 12613087378
field sqrsum 1.3355367570195e+015
field min 1
field max 158827
statistic Basic.rack[7].node[0].app 	"End-to-End Delay"
field count 158827
field mean 0.0001624803362576
field stddev 0.00019297733923416
field sum 25.806264366786
field sqrsum 0.010107731007572
field min 8.496e-007
field max 0.000419203958
statistic Basic.rack[7].node[0].app 	hops
field count 158827
field mean 4.0568039439138
field stddev 0.82769939486061
field sum 644330
field sqrsum 2722730
field min 3
field max 5
statistic Basic.rack[7].node[1].app 	throughput
field count 159712
field mean 79856.5
field stddev 46105.027433748
field sum 12754041328
field sqrsum 1.3579865503988e+015
field min 1
field max 159712
statistic Basic.rack[7].node[1].app 	"End-to-End Delay"
field count 159712
field mean 0.000162432070478
field stddev 0.0001930139509226
field sum 25.942350840182
field sqrsum 0.01016380488282
field min 8.496e-007
field max 0.000419203039
statistic Basic.rack[7].node[1].app 	hops
field count 159712
field mean 4.0586994089361
field stddev 0.82642329101067
field sum 648223
field sqrsum 2740021
field min 3
field max 5
statistic Basic.rack[7].node[2].app 	throughput
field count 159355
field mean 79678
field stddev 46001.970410697
field sum 12697087690
field sqrsum 1.3489005049225e+015
field min 1
field max 159355
statistic Basic.rack[7].node[2].app 	"End-to-End Delay"
field count 159355
field mean 0.00016169569244225
field stddev 0.00019277502651533
field sum 25.767017069134
field sqrsum 0.010088362614635
field min 8.496e-007
field max 0.000419188736
statistic Basic.rack[7].node[2].app 	hops
field count 159355
field mean 4.0541495403345
field stddev 0.82714765736714
field sum 646049
field sqrsum 2728205
field min 3
field max 5
statistic Basic.rack[7].node[3].app 	throughput
field count 159782
field mean 79891.5
field stddev 46125.23469317
field sum 12765223653
field sqrsum 1.3597728988903e+015
field min 1
field max 159782
statistic Basic.rack[7].node[3].app 	"End-to-End Delay"
field count 159782
field mean 0.00016141475323517
field stddev 0.00019273516406732
field sum 25.791172101423
field sqrsum 0.010098435476566
field min 8.496e-007
field max 0.000419167074
statistic Basic.rack[7].node[3].app 	hops
field count 159782
field mean 4.0556570827753
field stddev 0.82539096700928
field sum 648021
field sqrsum 2737005
field min 3
field max 5
statistic Basic.rack[7].node[4].app 	throughput
field count 159254
field mean 79627.5
field stddev 45972.814222103
field sum 12680997885
field sqrsum 1.3463373184512e+015
field min 1
field max 159254
statistic Basic.rack[7].node[4].app 	"End-to-End Delay"
field count 159254
field mean 0.00016220565253109
field stddev 0.00019298115224281
field sum 25.831898988186
field sqrsum 0.010120936482185
field min 8.496e-007
field max 0.0004191971
statistic Basic.rack[7].node[4].app 	hops
field count 159254
field mean 4.0595338264659
field stddev 0.8253309741031
field sum 646497
field sqrsum 2732955
field min 3
field max 5
statistic Basic.rack[7].node[5].app 	throughput
field count 159219
field mean 79610
field stddev 45962.710592392
field sum 12675424590
field sqrsum 1.3454498436717e+015
field min 1
field max 159219
statistic Basic.rack[7].node[5].app 	"End-to-End Delay"
field count 159219
field mean 0.00016163455447761
field stddev 0.00019277813408391
field sum 25.73529212937
field sqrsum 0.010076796128798
field min 8.496e-007
field max 0.000419197453
statistic Basic.rack[7].node[5].app 	hops
field count 159219
field mean 4.0549871560555
field stddev 0.82635337435777
field sum 645631
field sqrsum 2726749
field min 3
field max 5
statistic Basic.rack[7].node[6].app 	throughput
field count 159012
field mean 79506.5
field stddev 45902.954839531
field sum 12642487578
field sqrsum 1.3402090373312e+015
field min 1
field max 159012
statistic Basic.rack[7].node[6].app 	"End-to-End Delay"
field count 159012
field mean 0.00016217104108045
field stddev 0.00019284046594775
field sum 25.787141584284
field sqrsum 0.010095140462915
field min 8.496e-007
field max 0.000419217512
statistic Basic.rack[7].node[6].app 	hops
field count 159012
field mean 4.0567064120947
field stddev 0.82667082971236
field sum 645065
field sqrsum 2725505
field min 3
field max 5
statistic Basic.rack[7].node[7].app 	throughput
field count 158883
field mean 79442
field stddev 45865.715747168
field sum 12621983286
field sqrsum 1.3369499209475e+015
field min 1
field max 158883
statistic Basic.rack[7].node[7].app 	"End-to-End Delay"
field count 158883
field mean 0.00016149272235082
field stddev 0.00019279912996772
field sum 25.658448205266
field sqrsum 0.010049535632526
field min 8.496e-007
field max 0.000419180386
statistic Basic.rack[7].node[7].app 	hops
field count 158883
field mean 4.0558713015238
field stddev 0.82544987475239
field sum 644409
field sqrsum 2721897
field min 3
field max 5
statistic Basic.rack[7].node[8].app 	throughput
field count 158989
field mean 79495
field stddev 45896.315311435
field sum 12638830555
field sqrsum 1.3396275670161e+015
field min 1
field max 158989
statistic Basic.rack[7].node[8].app 	"End-to-End Delay"
field count 158989
field mean 0.00016215446291269
field stddev 0.00019294377058428
field sum 25.780775904026
field sqrsum 0.010099161621164
field min 8.496e-007
field max 0.000419219914
statistic Basic.rack[7].node[8].app 	hops
field count 158989
field mean 4.059155035883
field stddev 0.82524941656392
field sum 645361
field sqrsum 2727897
field min 3
field max 5
statistic Basic.rack[7].node[9].app 	throughput
field count 159194
field mean 79597.5
field stddev 45955.493714027
field sum 12671444415
field sqrsum 1.3448161719491e+015
field min 1
field max 159194
statistic Basic.rack[7].node[9].app 	"End-to-End Delay"
field count 159194
field mean 0.00016167081555299
field stddev 0.00019282323868801
field sum 25.737023811142
field sqrsum 0.010079848943243
field min 8.496e-007
field max 0.000419279522
statistic Basic.rack[7].node[9].app 	hops
field count 159194
field mean 4.0561641770418
field stddev 0.8258070888261
field sum 645717
field sqrsum 2727697
field min 3
field max 5
statistic Basic.rack[7].eps.queue[0] 	dropsum
field count 779058
field mean 389529.5
field stddev 224894.81734403
field sum 303466073211
field sqrsum 1.5761188253087e+017
field min 1
field max 779058
statistic Basic.rack[7].eps.queue[1] 	dropsum
field count 0
field mean nan
field stddev nan
field sum 0
field sqrsum 0
field min nan
field max nan
statistic Basic.rack[7].eps.queue[2] 	dropsum
field count 0
field mean nan
field stddev nan
field sum 0
field sqrsum 0
field min nan
field max nan
statistic Basic.rack[7].eps.queue[3] 	dropsum
field count 0
field mean nan
field stddev nan
field sum 0
field sqrsum 0
field min nan
field max nan
statistic Basic.rack[8].node[0].app 	throughput
field count 163457
field mean 81729
field stddev 47186.115812811
field sum 13359177153
field sqrsum 1.4557717996577e+015
field min 1
field max 163457
statistic Basic.rack[8].node[0].app 	"End-to-End Delay"
field count 163457
field mean 0.00017633977954655
field stddev 0.00020468312707029
field sum 28.82397134534
field sqrsum 0.011930831704602
field min 8.992e-006
field max 0.000612696798
statistic Basic.rack[8].node[0].app 	hops
field count 163457
field mean 4.1623423897416
field stddev 1.4615062113772
field sum 680364
field sqrsum 3181050
field min 3
field max 6
statistic Basic.rack[8].node[1].app 	throughput
field count 163526
field mean 81763.5
field stddev 47206.034397098
field sum 13370458101
field sqrsum 1.4576161444355e+015
field min 1
field max 163526
statistic Basic.rack[8].node[1].app 	"End-to-End Delay"
field count 163526
field mean 0.0001762448205188
field stddev 0.00020465145286473
field sum 28.820610520158
field sqrsum 0.011928272889398
field min 8.992e-006
field max 0.000609652577
statistic Basic.rack[8].node[1].app 	hops
field count 163526
field mean 4.1618702836246
field stddev 1.461397055936
field sum 680574
field sqrsum 3181698
field min 3
field max 6
statistic Basic.rack[8].node[2].app 	throughput
field count 163263
field mean 81632
field stddev 47130.112836699
field sum 13327485216
field sqrsum 1.4505945883749e+015
field min 1
field max 163263
statistic Basic.rack[8].node[2].app 	"End-to-End Delay"
field count 163263
field mean 0.00017560744054727
field stddev 0.00020453319486138
field sum 28.670197566069
field sqrsum 0.011864574408878
field min 8.992e-006
field max 0.000624890168
statistic Basic.rack[8].node[2].app 	hops
field count 163263
field mean 4.1573289722717
field stddev 1.4603388747314
field sum 678738
field sqrsum 3169908
field min 3
field max 6
statistic Basic.rack[8].node[3].app 	throughput
field count 163131
field mean 81566
field stddev 47092.007718933
field sum 13305943146
field sqrsum 1.4470789762145e+015
field min 1
field max 163131
statistic Basic.rack[8].node[3].app 	"End-to-End Delay"
field count 163131
field mean 0.00017582763284629
field stddev 0.00020461162373064
field sum 28.682937573847
field sqrsum 0.011872839986048
field min 8.992e-006
field max 0.000612611832
statistic Basic.rack[8].node[3].app 	hops
field count 163131
field mean 4.1587435864428
field stddev 1.4606700993046
field sum 678420
field sqrsum 3169422
field min 3
field max 6
statistic Basic.rack[8].node[4].app 	throughput
field count 162622
field mean 81311.5
field stddev 46945.072075423
field sum 13223038753
field sqrsum 1.4335757464065e+015
field min 1
field max 162622
statistic Basic.rack[8].node[4].app 	"End-to-End Delay"
field count 162622
field mean 0.00017633122899184
field stddev 0.00020464822609226
field sum 28.675337121112
field sqrsum 0.011867070696731
field min 8.992e-006
field max 0.000616086594
statistic Basic.rack[8].node[4].app 	hops
field count 162622
field mean 4.1626840156928
field stddev 1.461585119966
field sum 676944
field sqrsum 3165300
field min 3
field max 6
statistic Basic.rack[8].node[5].app 	throughput
field count 162954
field mean 81477.5
field stddev 47040.912220109
field sum 13277084535
field sqrsum 1.4423737812391e+015
field min 1
field max 162954
statistic Basic.rack[8].node[5].app 	"End-to-End Delay"
field count 162954
field mean 0.00017506333564076
field stddev 0.00020444145526068
field sum 28.527270796005
field sqrsum 0.011804913062315
field min 8.992e-006
field max 0.000617161753
statistic Basic.rack[8].node[5].app 	hops
field count 162954
field mean 4.153172060827
field stddev 1.4593572044175
field sum 676776
field sqrsum 3157812
field min 3
field max 6
statistic Basic.rack[8].node[6].app 	throughput
field count 162869
field mean 81435
field stddev 47016.374833668
field sum 13263237015
field sqrsum 1.4401178540097e+015
field min 1
field max 162869
statistic Basic.rack[8].node[6].app 	"End-to-End Delay"
field count 162869
field mean 0.0001755861177247
field stddev 0.00020450253860412
field sum 28.597535407704
field sqrsum 0.01183267980085
field min 8.992e-006
field max 0.0006109209
statistic Basic.rack[8].node[6].app 	hops
field count 162869
field mean 4.1574946736334
field stddev 1.4603777579801
field sum 677127
field sqrsum 3162501
field min 3
field max 6
statistic Basic.rack[8].node[7].app 	throughput
field count 162352
field mean 81176.5
field stddev 46867.129789082
field sum 13179167128
field sqrsum 1.4264471540991e+015
field min 1
field max 162352
statistic Basic.rack[8].node[7].app 	"End-to-End Delay"
field count 162352
field mean 0.00017581546726965
field stddev 0.00020456830390811
field sum 28.543992742163
field sqrsum 0.011812571072875
field min 8.992e-006
field max 0.000607858821
statistic Basic.rack[8].node[7].app 	hops
field count 162352
field mean 4.1586860648468
field stddev 1.4606566807365
field sum 675171
field sqrsum 3154203
field min 3
field max 6
statistic Basic.rack[8].node[8].app 	throughput
field count 163300
field mean 81650.5
field stddev 47140.793816679
field sum 13333526650
field sqrsum 1.4515810458056e+015
field min 1
field max 163300
statistic Basic.rack[8].node[8].app 	"End-to-End Delay"
field count 163300
field mean 0.00017657065014126
field stddev 0.00020477292932827
field sum 28.833987168068
field sqrsum 0.01193868178572
field min 8.992e-006
field max 0.000613956486
statistic Basic.rack[8].node[8].app 	hops
field count 163300
field mean 4.1643417023882
field stddev 1.4619666876201
field sum 680037
field sqrsum 3180933
field min 3
field max 6
statistic Basic.rack[8].node[9].app 	throughput
field count 162332
field mean 81166.5
field stddev 46861.35628639
field sum 13175920278
field sqrsum 1.4259200523523e+015
field min 1
field max 162332
statistic Basic.rack[8].node[9].app 	"End-to-End Delay"
field count 162332
field mean 0.00017558895689512
field stddev 0.00020453808589611
field sum 28.503706550698
field sqrsum 0.011796187990433
field min 8.992e-006
field max 0.000607725995
statistic Basic.rack[8].node[9].app 	hops
field count 162332
field mean 4.1568698716211
field stddev 1.4602310948168
field sum 674793
field sqrsum 3151161
field min 3
field max 6
statistic Basic.rack[8].eps.queue[0] 	dropsum
field count 0
field mean nan
field stddev nan
field sum 0
field sqrsum 0
field min nan
field max nan
statistic Basic.rack[8].eps.queue[1] 	dropsum
field count 0
field mean nan
field stddev nan
field sum 0
field sqrsum 0
field min nan
field max nan
statistic Basic.rack[8].eps.queue[2] 	dropsum
field count 0
field mean nan
field stddev nan
field sum 0
field sqrsum 0
field min nan
field max nan
statistic Basic.rack[8].eps.queue[3] 	dropsum
field count 0
field mean nan
field stddev nan
field sum 0
field sqrsum 0
field min nan
field max nan
statistic Basic.rack[9].node[0].app 	throughput
field count 162830
field mean 81415.5
field stddev 47005.116503419
field sum 13256885865
field sqrsum 1.4390835692273e+015
field min 1
field max 162830
statistic Basic.rack[9].node[0].app 	"End-to-End Delay"
field count 162830
field mean 0.00017711577351346
field stddev 0.00020478185765458
field sum 28.839761401197
field sqrsum 0.011936309962926
field min 8.992e-006
field max 0.000631397161
statistic Basic.rack[9].node[0].app 	hops
field count 162830
field mean 4.1680894184118
field stddev 1.4628221038256
field sum 678690
field sqrsum 3177270
field min 3
field max 6
statistic Basic.rack[9].node[1].app 	throughput
field count 162794
field mean 81397.5
field stddev 46994.724198574
field sum 13251024615
field sqrsum 1.4381292844577e+015
field min 1
field max 162794
statistic Basic.rack[9].node[1].app 	"End-to-End Delay"
field count 162794
field mean 0.00017566939002711
field stddev 0.00020452647508521
field sum 28.597922680073
field sqrsum 0.011833586478653
field min 8.992e-006
field max 0.000623700294
statistic Basic.rack[9].node[1].app 	hops
field count 162794
field mean 4.15754880401
field stddev 1.4603904543711
field sum 676824
field sqrsum 3161124
field min 3
field max 6
statistic Basic.rack[9].node[2].app 	throughput
field count 162605
field mean 81303
field stddev 46940.164598135
field sum 13220274315
field sqrsum 1.4331262100852e+015
field min 1
field max 162605
statistic Basic.rack[9].node[2].app 	"End-to-End Delay"
field count 162605
field mean 0.00017530679971552
field stddev 0.00020437056138843
field sum 28.505762167743
field sqrsum 0.011788788274881
field min 8.992e-006
field max 0.000659291518
statistic Basic.rack[9].node[2].app 	hops
field count 162605
field mean 4.1550567325728
field stddev 1.4598038388093
field sum 675633
field sqrsum 3153807
field min 3
field max 6
statistic Basic.rack[9].node[3].app 	throughput
field count 163448
field mean 81724.5
field stddev 47183.5177366
field sum 13357706076
field sqrsum 1.4555313477087e+015
field min 1
field max 163448
statistic Basic.rack[9].node[3].app 	"End-to-End Delay"
field count 163448
field mean 0.0001759731338497
field stddev 0.00020459145226549
field sum 28.762456781465
field sqrsum 0.011902928993554
field min 8.992e-006
field max 0.00064678691
statistic Basic.rack[9].node[3].app 	hops
field count 163448
field mean 4.1598000587343
field stddev 1.4609165129459
field sum 679911
field sqrsum 3177135
field min 3
field max 6
statistic Basic.rack[9].node[4].app 	throughput
field count 162761
field mean 81381
field stddev 46985.197919132
field sum 13245652941
field sqrsum 1.4372548941044e+015
field min 1
field max 162761
statistic Basic.rack[9].node[4].app 	"End-to-End Delay"
field count 162761
field mean 0.00017627487202032
field stddev 0.00020469766619563
field sum 28.690674444899
field sqrsum 0.011877273624648
field min 8.992e-006
field max 0.000624644119
statistic Basic.rack[9].node[4].app 	hops
field count 162761
field mean 4.1613592936883
field stddev 1.4612787521495
field sum 677307
field sqrsum 3166065
field min 3
field max 6
statistic Basic.rack[9].node[5].app 	throughput
field count 163331
field mean 81666
field stddev 47149.742745852
field sum 13338589446
field sqrsum 1.4524078813996e+015
field min 1
field max 163331
statistic Basic.rack[9].node[5].app 	"End-to-End Delay"
field count 163331
field mean 0.00017666140491599
field stddev 0.00020471602619454
field sum 28.854283926334
field sqrsum 0.011942378366311
field min 8.992e-006
field max 0.000664812866
statistic Basic.rack[9].node[5].app 	hops
field count 163331
field mean 4.1646717402085
field stddev 1.4620424226142
field sum 680220
field sqrsum 3182022
field min 3
field max 6
statistic Basic.rack[9].node[6].app 	throughput
field count 162240
field mean 81120.5
field stddev 46834.798174007
field sum 13160989920
field sqrsum 1.4234970567438e+015
field min 1
field max 162240
statistic Basic.rack[9].node[6].app 	"End-to-End Delay"
field count 162240
field mean 0.00017584439817819
field stddev 0.00020460807891363
field sum 28.528995160429
field sqrsum 0.011808713076967
field min 8.992e-006
field max 0.000639884117
statistic Basic.rack[9].node[6].app 	hops
field count 162240
field mean 4.1588942307692
field stddev 1.4607053109559
field sum 674739
field sqrsum 3152331
field min 3
field max 6
statistic Basic.rack[9].node[7].app 	throughput
field count 163458
field mean 81729.5
field stddev 47186.404487945
field sum 13359340611
field sqrsum 1.4557985181754e+015
field min 1
field max 163458
statistic Basic.rack[9].node[7].app 	"End-to-End Delay"
field count 163458
field mean 0.00017505277591685
field stddev 0.00020433611367729
field sum 28.613776645816
field sqrsum 0.011833781583851
field min 8.992e-006
field max 0.000620627209
statistic Basic.rack[9].node[7].app 	hops
field count 163458
field mean 4.1536541496898
field stddev 1.459471679477
field sum 678948
field sqrsum 3168288
field min 3
field max 6
statistic Basic.rack[9].node[8].app 	throughput
field count 163633
field mean 81817
field stddev 47236.9226365
field sum 13387961161
field sqrsum 1.4604792950923e+015
field min 1
field max 163633
statistic Basic.rack[9].node[8].app 	"End-to-End Delay"
field count 163633
field mean 0.00017516682190543
field stddev 0.00020441024637639
field sum 28.663072568851
field sqrsum 0.011857944989042
field min 8.992e-006
field max 0.000616330599
statistic Basic.rack[9].node[8].app 	hops
field count 163633
field mean 4.153813717282
field stddev 1.4595095325551
field sum 679701
field sqrsum 3171915
field min 3
field max 6
statistic Basic.rack[9].node[9].app 	throughput
field count 162972
field mean 81486.5
field stddev 47046.108372532
field sum 13280017878
field sqrsum 1.4428518090816e+015
field min 1
field max 162972
statistic Basic.rack[9].node[9].app 	"End-to-End Delay"
field count 162972
field mean 0.00017581714818607
field stddev 0.00020452098061957
field sum 28.65327227418
field sqrsum 0.011854623118047
field min 8.992e-006
field max 0.000645314291
statistic Basic.rack[9].node[9].app 	hops
field count 162972
field mean 4.1586775642442
field stddev 1.4606546772354
field sum 677748
field sqrsum 3166236
field min 3
field max 6
statistic Basic.rack[9].eps.queue[0] 	dropsum
field count 0
field mean nan
field stddev nan
field sum 0
field sqrsum 0
field min nan
field max nan
statistic Basic.rack[9].eps.queue[1] 	dropsum
field count 0
field mean nan
field stddev nan
field sum 0
field sqrsum 0
field min nan
field max nan
statistic Basic.rack[9].eps.queue[2] 	dropsum
field count 0
field mean nan
field stddev nan
field sum 0
field sqrsum 0
field min nan
field max nan
statistic Basic.rack[9].eps.queue[3] 	dropsum
field count 0
field mean nan
field stddev nan
field sum 0
field sqrsum 0
field min nan
field max nan
statistic Basic.rack[10].node[0].app 	throughput
field count 159294
field mean 79647.5
field stddev 45984.361227487
field sum 12687368865
field sqrsum 1.3473520531105e+015
field min 1
field max 159294
statistic Basic.rack[10].node[0].app 	"End-to-End Delay"
field count 159294
field mean 0.00016199423236342
field stddev 0.00019288826607751
field sum 25.804709250099
field sqrsum 0.010106850817378
field min 8.496e-007
field max 0.000419196258
statistic Basic.rack[10].node[0].app 	hops
field count 159294
field mean 4.0565683578791
field stddev 0.8265450246293
field sum 646187
field sqrsum 2730127
field min 3
field max 5
statistic Basic.rack[10].node[1].app 	throughput
field count 159190
field mean 79595.5
field stddev 45954.339013489
field sum 12670807645
field sqrsum 1.3447148029409e+015
field min 1
field max 159190
statistic Basic.rack[10].node[1].app 	"End-to-End Delay"
field count 159190
field mean 0.00016238475910236
field stddev 0.00019304994743758
field sum 25.850029801505
field sqrsum 0.010130351438142
field min 8.496e-007
field max 0.00041917261
statistic Basic.rack[10].node[1].app 	hops
field count 159190
field mean 4.0594635341416
field stddev 0.8258717827745
field sum 646226
field sqrsum 2731908
field min 3
field max 5
statistic Basic.rack[10].node[2].app 	throughput
field count 160084
field mean 80042.5
field stddev 46212.414583818
field sum 12813523570
field sqrsum 1.3674976759611e+015
field min 1
field max 160084
statistic Basic.rack[10].node[2].app 	"End-to-End Delay"
field count 160084
field mean 0.00016211073888546
field stddev 0.00019294143008308
field sum 25.95133552374
field sqrsum 0.01016630323844
field min 8.496e-007
field max 0.000419240826
statistic Basic.rack[10].node[2].app 	hops
field count 160084
field mean 4.0582506683991
field stddev 0.82590555058888
field sum 649661
field sqrsum 2745683
field min 3
field max 5
statistic Basic.rack[10].node[3].app 	throughput
field count 159307
field mean 79654
field stddev 45988.114004237
field sum 12689439778
field sqrsum 1.3476819516225e+015
field min 1
field max 159307
statistic Basic.rack[10].node[3].app 	"End-to-End Delay"
field count 159307
field mean 0.00016190162753221
field stddev 0.00019292528849712
field sum 25.792062577273
field sqrsum 0.010105172823487
field min 8.496e-007
field max 0.000419180727
statistic Basic.rack[10].node[3].app 	hops
field count 159307
field mean 4.0581832562285
field stddev 0.82545660147527
field sum 646497
field sqrsum 2732151
field min 3
field max 5
statistic Basic.rack[10].node[4].app 	throughput
field count 158629
field mean 79315
field stddev 45792.39226298
field sum 12581659135
field sqrsum 1.3305481985037e+015
field min 1
field max 158629
statistic Basic.rack[10].node[4].app 	"End-to-End Delay"
field count 158629
field mean 0.00016172054149351
field stddev 0.00019283291620164
field sum 25.653567776574
field sqrsum 0.010047217063341
field min 8.496e-007
field max 0.000419172237
statistic Basic.rack[10].node[4].app 	hops
field count 158629
field mean 4.0571522231118
field stddev 0.82532727018767
field sum 643582
field sqrsum 2719162
field min 3
field max 5
statistic Basic.rack[10].node[5].app 	throughput
field count 158745
field mean 79373
field stddev 45825.878578594
field sum 12600066885
field sqrsum 1.3334692784618e+015
field min 1
field max 158745
statistic Basic.rack[10].node[5].app 	"End-to-End Delay"
field count 158745
field mean 0.00016207310645471
field stddev 0.00019295049186368
field sum 25.728295284153
field sqrsum 0.010079886765415
field min 8.496e-007
field max 0.000419183681
statistic Basic.rack[10].node[5].app 	hops
field count 158745
field mean 4.0593278528458
field stddev 0.82509206336575
field sum 644398
field sqrsum 2723892
field min 3
field max 5
statistic Basic.rack[10].node[6].app 	throughput
field count 158969
field mean 79485
field stddev 45890.541808743
field sum 12635650965
field sqrsum 1.339122077387e+015
field min 1
field max 158969
statistic Basic.rack[10].node[6].app 	"End-to-End Delay"
field count 158969
field mean 0.00016198615215604
field stddev 0.00019289744454163
field sum 25.750776622093
field sqrsum 0.010086376952071
field min 8.496e-007
field max 0.000419184315
statistic Basic.rack[10].node[6].app 	hops
field count 158969
field mean 4.0566211022275
field stddev 0.82653027252323
field sum 644877
field sqrsum 2724621
field min 3
field max 5
statistic Basic.rack[10].node[7].app 	throughput
field count 158067
field mean 79034
field stddev 45630.156837337
field sum 12492667278
field sqrsum 1.3164564566435e+015
field min 1
field max 158067
statistic Basic.rack[10].node[7].app 	"End-to-End Delay"
field count 158067
field mean 0.00016146217185895
field stddev 0.00019272168346204
field sum 25.521841119229
field sqrsum 0.009991643515348
field min 8.496e-007
field max 0.000419198682
statistic Basic.rack[10].node[7].app 	hops
field count 158067
field mean 4.0545022047613
field stddev 0.82624055963685
field sum 640883
field sqrsum 2706369
field min 3
field max 5
statistic Basic.rack[10].node[8].app 	throughput
field count 159296
field mean 79648.5
field stddev 45984.938577756
field sum 12687687456
field sqrsum 1.3474028032231e+015
field min 1
field max 159296
statistic Basic.rack[10].node[8].app 	"End-to-End Delay"
field count 159296
field mean 0.00016204458628823
field stddev 0.00019290619767697
field sum 25.81305441737
field sqrsum 0.010110678875471
field min 8.496e-007
field max 0.00041916905
statistic Basic.rack[10].node[8].app 	hops
field count 159296
field mean 4.0580805544395
field stddev 0.82582321586914
field sum 646436
field sqrsum 2731926
field min 3
field max 5
statistic Basic.rack[10].node[9].app 	throughput
field count 158861
field mean 79431
field stddev 45859.364894207
field sum 12618488091
field sqrsum 1.3363946305789e+015
field min 1
field max 158861
statistic Basic.rack[10].node[9].app 	"End-to-End Delay"
field count 158861
field mean 0.00016146577683959
field stddev 0.00019272511114548
field sum 25.650614774514
field sqrsum 0.010042228411495
field min 8.496e-007
field max 0.00041918438
statistic Basic.rack[10].node[9].app 	hops
field count 158861
field mean 4.055501350237
field stddev 0.8256694893974
field sum 644261
field sqrsum 2721101
field min 3
field max 5
statistic Basic.rack[10].eps.queue[0] 	dropsum
field count 0
field mean nan
field stddev nan
field sum 0
field sqrsum 0
field min nan
field max nan
statistic Basic.rack[10].eps.queue[1] 	dropsum
field count 782000
field mean 391000.5
field stddev 225744.09959
field sum 305762391000
field sqrsum 1.5940422842856e+017
field min 1
field max 782000
statistic Basic.rack[10].eps.queue[2] 	dropsum
field count 0
field mean nan
field stddev nan
field sum 0
field sqrsum 0
field min nan
field max nan
statistic Basic.rack[10].eps.queue[3] 	dropsum
field count 0
field mean nan
field stddev nan
field sum 0
field sqrsum 0
field min nan
field max nan
statistic Basic.rack[11].node[0].app 	throughput
field count 159402
field mean 79701.5
field stddev 46015.538142023
field sum 12704578503
field sqrsum 1.3500943832163e+015
field min 1
field max 159402
statistic Basic.rack[11].node[0].app 	"End-to-End Delay"
field count 159402
field mean 0.00016227852442432
field stddev 0.00019294742238272
field sum 25.867521350286
field sqrsum 0.010132036447926
field min 8.496e-007
field max 0.000419213856
statistic Basic.rack[11].node[0].app 	hops
field count 159402
field mean 4.0578223610745
field stddev 0.82650330010427
field sum 646825
field sqrsum 2733589
field min 3
field max 5
statistic Basic.rack[11].node[1].app 	throughput
field count 159580
field mean 79790.5
field stddev 46066.922315981
field sum 12732967990
field sqrsum 1.3546222655521e+015
field min 1
field max 159580
statistic Basic.rack[11].node[1].app 	"End-to-End Delay"
field count 159580
field mean 0.00016297450044896
field stddev 0.00019309401631236
field sum 26.007470781645
field sqrsum 0.010188505309345
field min 8.496e-007
field max 0.000419254511
statistic Basic.rack[11].node[1].app 	hops
field count 159580
field mean 4.0592179471112
field stddev 0.82752147912809
field sum 647770
field sqrsum 2738718
field min 3
field max 5
statistic Basic.rack[11].node[2].app 	throughput
field count 159916
field mean 79958.5
field stddev 46163.917161206
field sum 12786643486
field sqrsum 1.3631968486859e+015
[...]
field sum 13303170055
field sqrsum 1.4466266212909e+015
field min 1
field max 163114
statistic Basic.rack[13].node[2].app 	"End-to-End Delay"
field count 163114
field mean 0.00017595025567117
field stddev 0.00020453394896827
field sum 28.699950003548
field sqrsum 0.011873455012005
field min 8.992e-006
field max 0.000629669189
statistic Basic.rack[13].node[2].app 	hops
field count 163114
field mean 4.1601334036318
field stddev 1.4609941076665
field sum 678576
field sqrsum 3171132
field min 3
field max 6
statistic Basic.rack[13].node[3].app 	throughput
field count 163441
field mean 81721
field stddev 47181.497010657
field sum 13356561961
field sqrsum 1.4553443478325e+015
field min 1
field max 163441
statistic Basic.rack[13].node[3].app 	"End-to-End Delay"
field count 163441
field mean 0.00017534710488678
field stddev 0.00020443682587859
field sum 28.658906169801
field sqrsum 0.011856135540414
field min 8.992e-006
field max 0.00062619435
statistic Basic.rack[13].node[3].app 	hops
field count 163441
field mean 4.1552242093477
field stddev 1.4598433797491
field sum 679134
field sqrsum 3170268
field min 3
field max 6
statistic Basic.rack[13].node[4].app 	throughput
field count 163204
field mean 81602.5
field stddev 47113.081003758
field sum 13317854410
field sqrsum 1.4490225133712e+015
field min 1
field max 163204
statistic Basic.rack[13].node[4].app 	"End-to-End Delay"
field count 163204
field mean 0.00017586532363123
field stddev 0.00020455709103309
field sum 28.701924277911
field sqrsum 0.011876674822666
field min 8.992e-006
field max 0.000615771409
statistic Basic.rack[13].node[4].app 	hops
field count 163204
field mean 4.1593098208377
field stddev 1.4608022717448
field sum 678816
field sqrsum 3171672
field min 3
field max 6
statistic Basic.rack[13].node[5].app 	throughput
field count 162594
field mean 81297.5
field stddev 46936.989171654
field sum 13218485715
field sqrsum 1.432835383725e+015
field min 1
field max 162594
statistic Basic.rack[13].node[5].app 	"End-to-End Delay"
field count 162594
field mean 0.00017664379761138
field stddev 0.00020466976811082
field sum 28.721221628824
field sqrsum 0.011884399925466
field min 8.992e-006
field max 0.000626676209
statistic Basic.rack[13].node[5].app 	hops
field count 162594
field mean 4.1649138344588
field stddev 1.4620979479233
field sum 677190
field sqrsum 3168018
field min 3
field max 6
statistic Basic.rack[13].node[6].app 	throughput
field count 162410
field mean 81205.5
field stddev 46883.872946889
field sum 13188585255
field sqrsum 1.4279764837048e+015
field min 1
field max 162410
statistic Basic.rack[13].node[6].app 	"End-to-End Delay"
field count 162410
field mean 0.00017600459956699
field stddev 0.00020459067705205
field sum 28.584907015675
field sqrsum 0.011829084679246
field min 8.992e-006
field max 0.000621590247
statistic Basic.rack[13].node[6].app 	hops
field count 162410
field mean 4.1601379225417
field stddev 1.4609951782987
field sum 675648
field sqrsum 3157452
field min 3
field max 6
statistic Basic.rack[13].node[7].app 	throughput
field count 163007
field mean 81504
field stddev 47056.212002243
field sum 13285722528
field sqrsum 1.4437816099886e+015
field min 1
field max 163007
statistic Basic.rack[13].node[7].app 	"End-to-End Delay"
field count 163007
field mean 0.00017487269032579
field stddev 0.00020425689296403
field sum 28.505472631936
field sqrsum 0.011785582180126
field min 8.992e-006
field max 0.000639002394
statistic Basic.rack[13].node[7].app 	hops
field count 163007
field mean 4.1520425503199
field stddev 1.4590883022027
field sum 676812
field sqrsum 3157182
field min 3
field max 6
statistic Basic.rack[13].node[8].app 	throughput
field count 162821
field mean 81411
field stddev 47002.518427208
field sum 13255420431
field sqrsum 1.4388449584707e+015
field min 1
field max 162821
statistic Basic.rack[13].node[8].app 	"End-to-End Delay"
field count 162821
field mean 0.00017640600789357
field stddev 0.00020466400626095
field sum 28.722602611239
field sqrsum 0.011886938878761
field min 8.992e-006
field max 0.000610840804
statistic Basic.rack[13].node[8].app 	hops
field count 162821
field mean 4.1627369933854
field stddev 1.4615973401415
field sum 677781
field sqrsum 3169251
field min 3
field max 6
statistic Basic.rack[13].node[9].app 	throughput
field count 163630
field mean 81815.5
field stddev 47236.056611096
field sum 13387470265
field sqrsum 1.4603989687981e+015
field min 1
field max 163630
statistic Basic.rack[13].node[9].app 	"End-to-End Delay"
field count 163630
field mean 0.00017546177337958
field stddev 0.00020446908294957
field sum 28.710809978101
field sqrsum 0.011878586376827
field min 8.992e-006
field max 0.000632338298
statistic Basic.rack[13].node[9].app 	hops
field count 163630
field mean 4.1563099676099
field stddev 1.4600993768782
field sum 680097
field sqrsum 3175533
field min 3
field max 6
statistic Basic.rack[13].eps.queue[0] 	dropsum
field count 0
field mean nan
field stddev nan
field sum 0
field sqrsum 0
field min nan
field max nan
statistic Basic.rack[13].eps.queue[1] 	dropsum
field count 0
field mean nan
field stddev nan
field sum 0
field sqrsum 0
field min nan
field max nan
statistic Basic.rack[13].eps.queue[2] 	dropsum
field count 0
field mean nan
field stddev nan
field sum 0
field sqrsum 0
field min nan
field max nan
statistic Basic.rack[13].eps.queue[3] 	dropsum
field count 0
field mean nan
field stddev nan
field sum 0
field sqrsum 0
field min nan
field max nan
statistic Basic.rack[14].node[0].app 	throughput
field count 159083
field mean 79542
field stddev 45923.450774087
field sum 12653779986
field sqrsum 1.3420050722686e+015
field min 1
field max 159083
statistic Basic.rack[14].node[0].app 	"End-to-End Delay"
field count 159083
field mean 0.00016179825826296
field stddev 0.00019285832031821
field sum 25.739352319247
field sqrsum 0.010081531052109
field min 8.496e-007
field max 0.000419265443
statistic Basic.rack[14].node[0].app 	hops
field count 159083
field mean 4.0556124790204
field stddev 0.82653697882539
field sum 645179
field sqrsum 2725275
field min 3
field max 5
statistic Basic.rack[14].node[1].app 	throughput
field count 159163
field mean 79582
field stddev 45946.544784855
field sum 12666509866
field sqrsum 1.3440306953714e+015
field min 1
field max 159163
statistic Basic.rack[14].node[1].app 	"End-to-End Delay"
field count 159163
field mean 0.00016217008817895
field stddev 0.00019294696901832
field sum 25.811477744826
field sqrsum 0.010111217367914
field min 8.496e-007
field max 0.000419227619
statistic Basic.rack[14].node[1].app 	hops
field count 159163
field mean 4.0576892870831
field stddev 0.82634938143457
field sum 645834
field sqrsum 2729278
field min 3
field max 5
statistic Basic.rack[14].node[2].app 	throughput
field count 158895
field mean 79448
field stddev 45869.179848783
field sum 12623889960
field sqrsum 1.3372528714261e+015
field min 1
field max 158895
statistic Basic.rack[14].node[2].app 	"End-to-End Delay"
field count 158895
field mean 0.00016273581642571
field stddev 0.00019308447709924
field sum 25.857907550963
field sqrsum 0.010131832677318
field min 8.496e-007
field max 0.000419246741
statistic Basic.rack[14].node[2].app 	hops
field count 158895
field mean 4.0595361716857
field stddev 0.82675101254737
field sum 645040
field sqrsum 2727170
field min 3
field max 5
statistic Basic.rack[14].node[3].app 	throughput
field count 159816
field mean 79908.5
field stddev 46135.049647746
field sum 12770656836
field sqrsum 1.3606411188204e+015
field min 1
field max 159816
statistic Basic.rack[14].node[3].app 	"End-to-End Delay"
field count 159816
field mean 0.0001606804321223
field stddev 0.00019261296307448
field sum 25.679303940057
field sqrsum 0.010055258766375
field min 8.496e-007
field max 0.000419235749
statistic Basic.rack[14].node[3].app 	hops
field count 159816
field mean 4.0526855884267
field stddev 0.82528931024931
field sum 647684
field sqrsum 2733710
field min 3
field max 5
statistic Basic.rack[14].node[4].app 	throughput
field count 158669
field mean 79335
field stddev 45803.939268364
field sum 12588005115
field sqrsum 1.331554985063e+015
field min 1
field max 158669
statistic Basic.rack[14].node[4].app 	"End-to-End Delay"
field count 158669
field mean 0.00016204357088378
field stddev 0.00019297020247503
field sum 25.711291348558
field sqrsum 0.010074748960348
field min 8.496e-007
field max 0.000419236037
statistic Basic.rack[14].node[4].app 	hops
field count 158669
field mean 4.0584235105786
field stddev 0.82559949661333
field sum 643946
field sqrsum 2721556
field min 3
field max 5
statistic Basic.rack[14].node[5].app 	throughput
field count 158314
field mean 79157.5
field stddev 45701.459595583
field sum 12531740455
field sqrsum 1.3226374828421e+015
field min 1
field max 158314
statistic Basic.rack[14].node[5].app 	"End-to-End Delay"
field count 158314
field mean 0.00016270931351129
field stddev 0.00019315573221726
field sum 25.759162259226
field sqrsum 0.010097776996036
field min 8.496e-007
field max 0.000419199443
statistic Basic.rack[14].node[5].app 	hops
field count 158314
field mean 4.0605379183142
field stddev 0.82617068430275
field sum 642840
field sqrsum 2718334
field min 3
field max 5
statistic Basic.rack[14].node[6].app 	throughput
field count 158700
field mean 79350.5
field stddev 45812.888197537
field sum 12592924350
field sqrsum 1.3323355938714e+015
field min 1
field max 158700
statistic Basic.rack[14].node[6].app 	"End-to-End Delay"
field count 158700
field mean 0.00016264840277376
field stddev 0.00019307964948654
field sum 25.812301520196
field sqrsum 0.010114588825399
field min 8.496e-007
field max 0.000419217614
statistic Basic.rack[14].node[6].app 	hops
field count 158700
field mean 4.0595904221802
field stddev 0.82647640111028
field sum 644257
field sqrsum 2723821
field min 3
field max 5
statistic Basic.rack[14].node[7].app 	throughput
field count 159462
field mean 79731.5
field stddev 46032.858650099
field sum 12714144453
field sqrsum 1.3516195065577e+015
field min 1
field max 159462
statistic Basic.rack[14].node[7].app 	"End-to-End Delay"
field count 159462
field mean 0.00016122681422679
field stddev 0.00019270498082302
field sum 25.709550250232
field sqrsum 0.010066686545496
field min 8.496e-007
field max 0.000419332455
statistic Basic.rack[14].node[7].app 	hops
field count 159462
field mean 4.0543577780286
field stddev 0.82563706633403
field sum 646516
field sqrsum 2729908
field min 3
field max 5
statistic Basic.rack[14].node[8].app 	throughput
field count 159094
field mean 79547.5
field stddev 45926.626200568
field sum 12655529965
field sqrsum 1.3422834746778e+015
field min 1
field max 159094
statistic Basic.rack[14].node[8].app 	"End-to-End Delay"
field count 159094
field mean 0.00016246249139493
field stddev 0.00019305371971814
field sum 25.846807605985
field sqrsum 0.010128491296797
field min 8.496e-007
field max 0.000419185104
statistic Basic.rack[14].node[8].app 	hops
field count 159094
field mean 4.059920550115
field stddev 0.82575813414752
field sum 645909
field sqrsum 2730821
field min 3
field max 5
statistic Basic.rack[14].node[9].app 	throughput
field count 159516
field mean 79758.5
field stddev 46048.447107367
field sum 12722756886
field sqrsum 1.3529930992037e+015
field min 1
field max 159516
statistic Basic.rack[14].node[9].app 	"End-to-End Delay"
field count 159516
field mean 0.00016190721100104
field stddev 0.00019289192715604
field sum 25.826790670042
field sqrsum 0.010116665398062
field min 8.496e-007
field max 0.000419214165
statistic Basic.rack[14].node[9].app 	hops
field count 159516
field mean 4.0573045964041
field stddev 0.82580235303505
field sum 647205
field sqrsum 2734689
field min 3
field max 5
statistic Basic.rack[14].eps.queue[0] 	dropsum
field count 0
field mean nan
field stddev nan
field sum 0
field sqrsum 0
field min nan
field max nan
statistic Basic.rack[14].eps.queue[1] 	dropsum
field count 776538
field mean 388269.5
field stddev 224167.35600486
field sum 301506020991
field sqrsum 1.5608735552065e+017
field min 1
field max 776538
statistic Basic.rack[14].eps.queue[2] 	dropsum
field count 0
field mean nan
field stddev nan
field sum 0
field sqrsum 0
field min nan
field max nan
statistic Basic.rack[14].eps.queue[3] 	dropsum
field count 0
field mean nan
field stddev nan
field sum 0
field sqrsum 0
field min nan
field max nan
statistic Basic.rack[15].node[0].app 	throughput
field count 159055
field mean 79528
field stddev 45915.367870318
field sum 12649326040
field sqrsum 1.3412965853035e+015
field min 1
field max 159055
statistic Basic.rack[15].node[0].app 	"End-to-End Delay"
field count 159055
field mean 0.00016303121542046
field stddev 0.00019320349418531
field sum 25.930929968701
field sqrsum 0.01016465355595
field min 8.496e-007
field max 0.000419211259
statistic Basic.rack[15].node[0].app 	hops
field count 159055
field mean 4.0607211341989
field stddev 0.82698446103359
field sum 645878
field sqrsum 2731508
field min 3
field max 5
statistic Basic.rack[15].node[1].app 	throughput
field count 159833
field mean 79917
field stddev 46139.957125034
field sum 12773373861
field sqrsum 1.3610753673414e+015
field min 1
field max 159833
statistic Basic.rack[15].node[1].app 	"End-to-End Delay"
field count 159833
field mean 0.00016156720732962
field stddev 0.00019285217067476
field sum 25.823771449115
field sqrsum 0.010116739943951
field min 8.496e-007
field max 0.000419195886
statistic Basic.rack[15].node[1].app 	hops
field count 159833
field mean 4.0565840596122
field stddev 0.82545716699396
field sum 648376
field sqrsum 2739098
field min 3
field max 5
statistic Basic.rack[15].node[2].app 	throughput
field count 159305
field mean 79653
field stddev 45987.536653967
field sum 12689121165
field sqrsum 1.3476311945006e+015
field min 1
field max 159305
statistic Basic.rack[15].node[2].app 	"End-to-End Delay"
field count 159305
field mean 0.00016253223224469
field stddev 0.00019302959115877
field sum 25.89219725774
field sqrsum 0.010144051053636
field min 8.496e-007
field max 0.000419260188
statistic Basic.rack[15].node[2].app 	hops
field count 159305
field mean 4.0591632403252
field stddev 0.82644100574457
field sum 646645
field sqrsum 2733643
field min 3
field max 5
statistic Basic.rack[15].node[3].app 	throughput
field count 159389
field mean 79695
field stddev 46011.785365274
field sum 12702506355
field sqrsum 1.3497640911135e+015
field min 1
field max 159389
statistic Basic.rack[15].node[3].app 	"End-to-End Delay"
field count 159389
field mean 0.00016141266886001
field stddev 0.00019284863473065
field sum 25.727403876928
field sqrsum 0.010080463624709
field min 8.496e-007
field max 0.000419198473
statistic Basic.rack[15].node[3].app 	hops
field count 159389
field mean 4.0576137625558
field stddev 0.8243018661311
field sum 646739
field sqrsum 2732517
field min 3
field max 5
statistic Basic.rack[15].node[4].app 	throughput
field count 159413
field mean 79707
field stddev 46018.713568504
field sum 12706331991
field sqrsum 1.3503739032315e+015
field min 1
field max 159413
statistic Basic.rack[15].node[4].app 	"End-to-End Delay"
field count 159413
field mean 0.0001617053380151
field stddev 0.00019281954473204
field sum 25.777933049001
field sqrsum 0.010095268196351
field min 8.496e-007
field max 0.000419195703
statistic Basic.rack[15].node[4].app 	hops
field count 159413
field mean 4.0555099019528
field stddev 0.82647380304265
field sum 646501
field sqrsum 2730779
field min 3
field max 5
statistic Basic.rack[15].node[5].app 	throughput
field count 158839
field mean 79420
field stddev 45853.014041246
field sum 12614993380
field sqrsum 1.3358394939883e+015
field min 1
field max 158839
statistic Basic.rack[15].node[5].app 	"End-to-End Delay"
field count 158839
field mean 0.00016201935150227
field stddev 0.00019294375687175
field sum 25.734991773269
field sqrsum 0.010082675493714
field min 8.496e-007
field max 0.000419230854
statistic Basic.rack[15].node[5].app 	hops
field count 158839
field mean 4.0580713804544
field stddev 0.82563785672106
field sum 644580
field sqrsum 2724028
field min 3
field max 5
statistic Basic.rack[15].node[6].app 	throughput
field count 159086
field mean 79543.5
field stddev 45924.316799491
field sum 12654257241
field sqrsum 1.3420809963802e+015
field min 1
field max 159086
statistic Basic.rack[15].node[6].app 	"End-to-End Delay"
field count 159086
field mean 0.00016200262676535
field stddev 0.0001929515635127
field sum 25.772349881592
field sqrsum 0.010097971586789
field min 8.496e-007
field max 0.000419216855
statistic Basic.rack[15].node[6].app 	hops
field count 159086
field mean 4.0592824007141
field stddev 0.82493401225816
field sum 645775
field sqrsum 2729643
field min 3
field max 5
statistic Basic.rack[15].node[7].app 	throughput
field count 159410
field mean 79705.5
field stddev 46017.8475431
field sum 12705853755
field sqrsum 1.3502976666743e+015
field min 1
field max 159410
statistic Basic.rack[15].node[7].app 	"End-to-End Delay"
field count 159410
field mean 0.00016151591506346
field stddev 0.0001927720908003
field sum 25.747252020267
field sqrsum 0.010082401411382
field min 8.496e-007
field max 0.000419273412
statistic Basic.rack[15].node[7].app 	hops
field count 159410
field mean 4.0557054137131
field stddev 0.82580403903545
field sum 646520
field sqrsum 2730804
field min 3
field max 5
statistic Basic.rack[15].node[8].app 	throughput
field count 159049
field mean 79525
field stddev 45913.635819511
field sum 12648371725
field sqrsum 1.3411447991169e+015
field min 1
field max 159049
statistic Basic.rack[15].node[8].app 	"End-to-End Delay"
field count 159049
field mean 0.00016187725834323
field stddev 0.00019284202805728
field sum 25.746416062232
field sqrsum 0.010082443868466
field min 8.496e-007
field max 0.000419205739
statistic Basic.rack[15].node[8].app 	hops
field count 159049
field mean 4.0563285528359
field stddev 0.82626530454689
field sum 645155
field sqrsum 2725545
field min 3
field max 5
statistic Basic.rack[15].node[9].app 	throughput
field count 159492
field mean 79746.5
field stddev 46041.518904137
field sum 12718928778
field sqrsum 1.3523824987501e+015
field min 1
field max 159492
statistic Basic.rack[15].node[9].app 	"End-to-End Delay"
field count 159492
field mean 0.00016175515505622
field stddev 0.00019285972277514
field sum 25.798653190227
field sqrsum 0.010105312583863
field min 8.496e-007
field max 0.000419185184
statistic Basic.rack[15].node[9].app 	hops
field count 159492
field mean 4.0560216186392
field stddev 0.82626398374101
field sum 646903
field sqrsum 2732739
field min 3
field max 5
statistic Basic.rack[15].eps.queue[0] 	dropsum
field count 781596
field mean 390798.5
field stddev 225627.47483562
field sum 305446544406
field sqrsum 1.5915730002965e+017
field min 1
field max 781596
statistic Basic.rack[15].eps.queue[1] 	dropsum
field count 0
field mean nan
field stddev nan
field sum 0
field sqrsum 0
field min nan
field max nan
statistic Basic.rack[15].eps.queue[2] 	dropsum
field count 0
field mean nan
field stddev nan
field sum 0
field sqrsum 0
field min nan
field max nan
statistic Basic.rack[15].eps.queue[3] 	dropsum
field count 0
field mean nan
field stddev nan
field sum 0
field sqrsum 0
field min nan
field max nan
