version 2
run Basic-20-20180510-16:18:17-22012
attr configname Basic
attr datetime 20180510-16:18:17
attr experiment Basic
attr inifile omnetpp.ini
attr iterationvars "$0=exponential(0.25 ms), $1=5, $2=2"
attr iterationvarsf exponential(0.25_ms),5,2-
attr measurement "$0=exponential(0.25 ms), $1=5, $2=2"
attr network Networks.Basic
attr processid 22012
attr repetition 0
attr replication #0
attr resultdir results
attr runnumber 20
attr seedset 20
param **.frameCapacity 50
param **.packetLength "1024 bytes"
param **.pattern 5
param **.sendIaTime "exponential(0.25 ms)"
param **.tp 2

statistic Basic.rack[0].node[0].app 	throughput
field count 39909
field mean 19955
field stddev 11520.880283208
field sum 796384095
field sqrsum 21188860692935
field min 1
field max 39909
statistic Basic.rack[0].node[0].app 	"End-to-End Delay"
field count 39909
field mean 1.75326470742e-005
field stddev 1.2940164986961e-005
field sum 0.69971041208426
field sqrsum 1.8950285300777e-005
field min 8.992e-006
field max 9.6898794e-005
statistic Basic.rack[0].node[0].app 	hops
field count 39909
field mean 4.2566588989952
field stddev 1.2973713303786
field sum 169879
field sqrsum 790289
field min 3
field max 6
statistic Basic.rack[0].node[1].app 	throughput
field count 39995
field mean 19998
field stddev 11545.706344785
field sum 799820010
field sqrsum 21326134139970
field min 1
field max 39995
statistic Basic.rack[0].node[1].app 	"End-to-End Delay"
field count 39995
field mean 1.7613391270191e-005
field stddev 1.3015030344025e-005
field sum 0.70444758385128
field sqrsum 1.9182335171859e-005
field min 8.992e-006
field max 9.6193402e-005
statistic Basic.rack[0].node[1].app 	hops
field count 39995
field mean 4.2482810351294
field stddev 1.3004298907339
field sum 169910
field sqrsum 789460
field min 3
field max 6
statistic Basic.rack[0].node[2].app 	throughput
field count 40201
field mean 20101
field stddev 11605.173422516
field sum 808080301
field sqrsum 21657360147101
field min 1
field max 40201
statistic Basic.rack[0].node[2].app 	"End-to-End Delay"
field count 40201
field mean 1.7620667750386e-005
field stddev 1.29997736426e-005
field sum 0.70836846423327
field sqrsum 1.927548876641e-005
field min 8.992e-006
field max 9.3634186e-005
statistic Basic.rack[0].node[2].app 	hops
field count 40201
field mean 4.2610134076267
field stddev 1.297684373865
field sum 171297
field sqrsum 797595
field min 3
field max 6
statistic Basic.rack[0].node[3].app 	throughput
field count 40106
field mean 20053.5
field stddev 11577.749284727
field sum 804265671
field sqrsum 21504187422641
field min 1
field max 40106
statistic Basic.rack[0].node[3].app 	"End-to-End Delay"
field count 40106
field mean 1.760420058932e-005
field stddev 1.2939941937868e-005
field sum 0.70603406883526
field sqrsum 1.9144430685108e-005
field min 8.992e-006
field max 8.6539932e-005
statistic Basic.rack[0].node[3].app 	hops
field count 40106
field mean 4.2526305290979
field stddev 1.3000277871377
field sum 170556
field sqrsum 793092
field min 3
field max 6
statistic Basic.rack[0].node[4].app 	throughput
field count 40038
field mean 20019.5
field stddev 11558.119375573
field sum 801540741
field sqrsum 21394992639019
field min 1
field max 40038
statistic Basic.rack[0].node[4].app 	"End-to-End Delay"
field count 40038
field mean 1.7470604472683e-005
field stddev 1.2849947852263e-005
field sum 0.69948806187727
field sqrsum 1.8831435137569e-005
field min 8.992e-006
field max 8.5145027e-005
statistic Basic.rack[0].node[4].app 	hops
field count 40038
field mean 4.2456915929867
field stddev 1.2977270539875
field sum 169989
field sqrsum 789147
field min 3
field max 6
statistic Basic.rack[0].node[5].app 	throughput
field count 39990
field mean 19995.5
field stddev 11544.262969112
field sum 799620045
field sqrsum 21318136939715
field min 1
field max 39990
statistic Basic.rack[0].node[5].app 	"End-to-End Delay"
field count 39990
field mean 1.7597948716886e-005
field stddev 1.300816192375e-005
field sum 0.70374196918826
field sqrsum 1.9151044814032e-005
field min 8.992e-006
field max 9.8475995e-005
statistic Basic.rack[0].node[5].app 	hops
field count 39990
field mean 4.2521880470118
field stddev 1.3000026309698
field sum 170045
field sqrsum 790645
field min 3
field max 6
statistic Basic.rack[0].node[6].app 	throughput
field count 39953
field mean 19977
field stddev 11533.581989131
field sum 798141081
field sqrsum 21259019786489
field min 1
field max 39953
statistic Basic.rack[0].node[6].app 	"End-to-End Delay"
field count 39953
field mean 1.766125762807e-005
field stddev 1.3020275623895e-005
field sum 0.70562022601428
field sqrsum 1.9235106368392e-005
field min 8.992e-006
field max 8.1937217e-005
statistic Basic.rack[0].node[6].app 	hops
field count 39953
field mean 4.2609065652141
field stddev 1.2991855944999
field sum 170236
field sqrsum 792794
field min 3
field max 6
statistic Basic.rack[0].node[7].app 	throughput
field count 40059
field mean 20030
field stddev 11564.1815534
field sum 802381770
field sqrsum 21428675010210
field min 1
field max 40059
statistic Basic.rack[0].node[7].app 	"End-to-End Delay"
field count 40059
field mean 1.7651518487937e-005
field stddev 1.2994328184367e-005
field sum 0.70710217910827
field sqrsum 1.9245323234679e-005
field min 8.992e-006
field max 9.0951481e-005
statistic Basic.rack[0].node[7].app 	hops
field count 40059
field mean 4.2629870940363
field stddev 1.2995237855107
field sum 170771
field sqrsum 795643
field min 3
field max 6
statistic Basic.rack[0].node[8].app 	throughput
field count 40076
field mean 20038.5
field stddev 11569.089030689
field sum 803062926
field sqrsum 21455967569226
field min 1
field max 40076
statistic Basic.rack[0].node[8].app 	"End-to-End Delay"
field count 40076
field mean 1.7662679689047e-005
field stddev 1.2986207737027e-005
field sum 0.70784955121826
field sqrsum 1.9260831666127e-005
field min 8.992e-006
field max 8.2836529e-005
statistic Basic.rack[0].node[8].app 	hops
field count 40076
field mean 4.2612785707156
field stddev 1.3012125645497
field sum 170775
field sqrsum 795573
field min 3
field max 6
statistic Basic.rack[0].node[9].app 	throughput
field count 40065
field mean 20033
field stddev 11565.913604208
field sum 802622145
field sqrsum 21438305033665
field min 1
field max 40065
statistic Basic.rack[0].node[9].app 	"End-to-End Delay"
field count 40065
field mean 1.7624032006796e-005
field stddev 1.2983215942187e-005
field sum 0.70610684235227
field sqrsum 1.9197793527249e-005
field min 8.992e-006
field max 9.0361086e-005
statistic Basic.rack[0].node[9].app 	hops
field count 40065
field mean 4.2504430300761
field stddev 1.3012943474631
field sum 170294
field sqrsum 791668
field min 3
field max 6
statistic Basic.rack[0].eps.queue[0] 	dropsum
field count 0
field mean nan
field stddev nan
field sum 0
field sqrsum 0
field min nan
field max nan
statistic Basic.rack[0].eps.queue[1] 	dropsum
field count 0
field mean nan
field stddev nan
field sum 0
field sqrsum 0
field min nan
field max nan
statistic Basic.rack[0].eps.queue[2] 	dropsum
field count 0
field mean nan
field stddev nan
field sum 0
field sqrsum 0
field min nan
field max nan
statistic Basic.rack[0].eps.queue[3] 	dropsum
field count 0
field mean nan
field stddev nan
field sum 0
field sqrsum 0
field min nan
field max nan
statistic Basic.rack[1].node[0].app 	throughput
field count 39928
field mean 19964.5
field stddev 11526.365110765
field sum 797142556
field sqrsum 21219137698164
field min 1
field max 39928
statistic Basic.rack[1].node[0].app 	"End-to-End Delay"
field count 39928
field mean 1.7272931540955e-005
field stddev 1.2984502947395e-005
field sum 0.68967361056726
field sqrsum 1.8644270128442e-005
field min 8.992e-006
field max 9.267973e-005
statistic Basic.rack[1].node[0].app 	hops
field count 39928
field mean 4.2418353035464
field stddev 1.2984019522659
field sum 169368
field sqrsum 785742
field min 3
field max 6
statistic Basic.rack[1].node[1].app 	throughput
field count 40175
field mean 20088
field stddev 11597.667869016
field sum 807035400
field sqrsum 21615367141800
field min 1
field max 40175
statistic Basic.rack[1].node[1].app 	"End-to-End Delay"
field count 40175
field mean 1.7361853424749e-005
field stddev 1.3051809987298e-005
field sum 0.69751246133927
field sqrsum 1.8953739728935e-005
field min 8.992e-006
field max 0.000100619528
statistic Basic.rack[1].node[1].app 	hops
field count 40175
field mean 4.2561543248289
field stddev 1.2989546620642
field sum 170991
field sqrsum 795549
field min 3
field max 6
statistic Basic.rack[1].node[2].app 	throughput
field count 39839
field mean 19920
field stddev 11500.673023784
field sum 793592880
field sqrsum 21077562361840
field min 1
field max 39839
statistic Basic.rack[1].node[2].app 	"End-to-End Delay"
field count 39839
field mean 1.7367316512369e-005
field stddev 1.3037075871091e-005
field sum 0.69189652253625
field sqrsum 1.878746540518e-005
field min 8.992e-006
field max 7.9111703e-005
statistic Basic.rack[1].node[2].app 	hops
field count 39839
field mean 4.2503325886694
field stddev 1.3007355900739
field sum 169329
field sqrsum 787107
field min 3
field max 6
statistic Basic.rack[1].node[3].app 	throughput
field count 39984
field mean 19992.5
field stddev 11542.530918304
field sum 799380120
field sqrsum 21308542938760
field min 1
field max 39984
statistic Basic.rack[1].node[3].app 	"End-to-End Delay"
field count 39984
field mean 1.7311629164072e-005
field stddev 1.3039231852256e-005
field sum 0.69218818049627
field sqrsum 1.8780877417737e-005
field min 8.992e-006
field max 8.797811e-005
statistic Basic.rack[1].node[3].app 	hops
field count 39984
field mean 4.2468487394958
field stddev 1.2990216483406
field sum 169806
field sqrsum 788610
field min 3
field max 6
statistic Basic.rack[1].node[4].app 	throughput
field count 40109
field mean 20055
field stddev 11578.615310131
field sum 804385995
field sqrsum 21509013377635
field min 1
field max 40109
statistic Basic.rack[1].node[4].app 	"End-to-End Delay"
field count 40109
field mean 1.724969078235e-005
field stddev 1.2955436918503e-005
field sum 0.69186784758926
field sqrsum 1.8666367344478e-005
field min 8.992e-006
field max 8.3538637e-005
statistic Basic.rack[1].node[4].app 	hops
field count 40109
field mean 4.2449574908375
field stddev 1.2968101947755
field sum 170261
field sqrsum 790201
field min 3
field max 6
statistic Basic.rack[1].node[5].app 	throughput
field count 40016
field mean 20008.5
field stddev 11551.768522612
field sum 800660136
field sqrsum 21359744221496
field min 1
field max 40016
statistic Basic.rack[1].node[5].app 	"End-to-End Delay"
field count 40016
field mean 1.7351927964046e-005
field stddev 1.2969503111624e-005
field sum 0.69435474940927
field sqrsum 1.8779237151905e-005
field min 8.992e-006
field max 9.9447664e-005
statistic Basic.rack[1].node[5].app 	hops
field count 40016
field mean 4.2579718112755
field stddev 1.2995443889871
field sum 170387
field sqrsum 793081
field min 3
field max 6
statistic Basic.rack[1].node[6].app 	throughput
field count 40034
field mean 20017.5
field stddev 11556.964675035
field sum 801380595
field sqrsum 21388580953685
field min 1
field max 40034
statistic Basic.rack[1].node[6].app 	"End-to-End Delay"
field count 40034
field mean 1.7401717239853e-005
field stddev 1.3018716286766e-005
field sum 0.69666034798027
field sqrsum 1.8908158408117e-005
field min 8.992e-006
field max 9.0782153e-005
statistic Basic.rack[1].node[6].app 	hops
field count 40034
field mean 4.2600039966029
field stddev 1.3008533272419
field sum 170545
field sqrsum 794267
field min 3
field max 6
statistic Basic.rack[1].node[7].app 	throughput
field count 39615
field mean 19808
field stddev 11436.00979363
field sum 784693920
field sqrsum 20724027991840
field min 1
field max 39615
statistic Basic.rack[1].node[7].app 	"End-to-End Delay"
field count 39615
field mean 1.7468966800915e-005
field stddev 1.3098742411475e-005
field sum 0.69203311981826
field sqrsum 1.8885956963359e-005
field min 8.992e-006
field max 8.6410827e-005
statistic Basic.rack[1].node[7].app 	hops
field count 39615
field mean 4.2625773065758
field stddev 1.301096768482
field sum 168862
field sqrsum 786848
field min 3
field max 6
statistic Basic.rack[1].node[8].app 	throughput
field count 40337
field mean 20169
field stddev 11644.433240824
field sum 813556953
field sqrsum 21877902394425
field min 1
field max 40337
statistic Basic.rack[1].node[8].app 	"End-to-End Delay"
field count 40337
field mean 1.7345539657344e-005
field stddev 1.3086660680555e-005
field sum 0.69966703315828
field sqrsum 1.9044073372392e-005
field min 8.992e-006
field max 9.4712822e-005
statistic Basic.rack[1].node[8].app 	hops
field count 40337
field mean 4.2477626000942
field stddev 1.298645479598
field sum 171342
field sqrsum 795846
field min 3
field max 6
statistic Basic.rack[1].node[9].app 	throughput
field count 40030
field mean 20015.5
field stddev 11555.809974496
field sum 801220465
field sqrsum 21382170549455
field min 1
field max 40030
statistic Basic.rack[1].node[9].app 	"End-to-End Delay"
field count 40030
field mean 1.7397803898833e-005
field stddev 1.311477215812e-005
field sum 0.69643409007027
field sqrsum 1.9001301598094e-005
field min 8.992e-006
field max 8.7624191e-005
statistic Basic.rack[1].node[9].app 	hops
field count 40030
field mean 4.2558081438921
field stddev 1.3002451319064
field sum 170360
field sqrsum 792694
field min 3
field max 6
statistic Basic.rack[1].eps.queue[0] 	dropsum
field count 0
field mean nan
field stddev nan
field sum 0
field sqrsum 0
field min nan
field max nan
statistic Basic.rack[1].eps.queue[1] 	dropsum
field count 0
field mean nan
field stddev nan
field sum 0
field sqrsum 0
field min nan
field max nan
statistic Basic.rack[1].eps.queue[2] 	dropsum
field count 0
field mean nan
field stddev nan
field sum 0
field sqrsum 0
field min nan
field max nan
statistic Basic.rack[1].eps.queue[3] 	dropsum
field count 0
field mean nan
field stddev nan
field sum 0
field sqrsum 0
field min nan
field max nan
statistic Basic.rack[2].node[0].app 	throughput
field count 39456
field mean 19728.5
field stddev 11390.110447226
field sum 778407696
field sqrsum 20475495504816
field min 1
field max 39456
statistic Basic.rack[2].node[0].app 	"End-to-End Delay"
field count 39456
field mean 7.9551051389647e-006
field stddev 4.73311940901e-006
field sum 0.31387662836299
field sqrsum 3.3808090343489e-006
field min 8.496e-007
field max 4.2021599e-005
statistic Basic.rack[2].node[0].app 	hops
field count 39456
field mean 4.2513432684509
field stddev 0.82856169351397
field sum 167741
field sqrsum 740211
field min 3
field max 5
statistic Basic.rack[2].node[1].app 	throughput
field count 40040
field mean 20020.5
field stddev 11558.696725842
field sum 801620820
field sqrsum 21398198962140
field min 1
field max 40040
statistic Basic.rack[2].node[1].app 	"End-to-End Delay"
field count 40040
field mean 7.9111962394854e-006
field stddev 4.7124547027252e-006
field sum 0.31676429742899
field sqrsum 3.3951397735766e-006
field min 8.496e-007
field max 4.0503564e-005
statistic Basic.rack[2].node[1].app 	hops
field count 40040
field mean 4.2460789210789
field stddev 0.828848475124
field sum 170013
field sqrsum 749395
field min 3
field max 5
statistic Basic.rack[2].node[2].app 	throughput
field count 40177
field mean 20089
field stddev 11598.245219285
field sum 807115753
field sqrsum 21618595444105
field min 1
field max 40177
statistic Basic.rack[2].node[2].app 	"End-to-End Delay"
field count 40177
field mean 7.9516107333049e-006
field stddev 4.7442668627603e-006
field sum 0.31947186443199
field sqrsum 3.4446000487892e-006
field min 8.496e-007
field max 4.281156e-005
statistic Basic.rack[2].node[2].app 	hops
field count 40177
field mean 4.243447743734
field stddev 0.83108773929691
field sum 170489
field sqrsum 751211
field min 3
field max 5
statistic Basic.rack[2].node[3].app 	throughput
field count 40120
field mean 20060.5
field stddev 11581.790736612
field sum 804827260
field sqrsum 21526714723220
field min 1
field max 40120
statistic Basic.rack[2].node[3].app 	"End-to-End Delay"
field count 40120
field mean 7.9097268662758e-006
field stddev 4.6900850544939e-006
field sum 0.31733824187499
field sqrsum 3.3925523610312e-006
field min 8.496e-007
field max 4.222116e-005
statistic Basic.rack[2].node[3].app 	hops
field count 40120
field mean 4.2529910269192
field stddev 0.82738560555036
field sum 170630
field sqrsum 753152
field min 3
field max 5
statistic Basic.rack[2].node[4].app 	throughput
field count 40004
field mean 20002.5
field stddev 11548.304420996
field sum 800180010
field sqrsum 21340534140030
field min 1
field max 40004
statistic Basic.rack[2].node[4].app 	"End-to-End Delay"
field count 40004
field mean 7.9101181482349e-006
field stddev 4.7268810681946e-006
field sum 0.31643636640199
field sqrsum 3.396852260166e-006
field min 8.496e-007
field max 4.1280476e-005
statistic Basic.rack[2].node[4].app 	hops
field count 40004
field mean 4.2450254974503
field stddev 0.82873698570503
field sum 169818
field sqrsum 748356
field min 3
field max 5
statistic Basic.rack[2].node[5].app 	throughput
field count 39888
field mean 19944.5
field stddev 11514.818105381
field sum 795546216
field sqrsum 21155430157944
field min 1
field max 39888
statistic Basic.rack[2].node[5].app 	"End-to-End Delay"
field count 39888
field mean 7.9519786796528e-006
field stddev 4.7003403191249e-006
field sum 0.31718852557399
field sqrsum 3.4035078259185e-006
field min 8.496e-007
field max 4.1312341e-005
statistic Basic.rack[2].node[5].app 	hops
field count 39888
field mean 4.2581478138789
field stddev 0.82765115973548
field sum 169849
field sqrsum 750565
field min 3
field max 5
statistic Basic.rack[2].node[6].app 	throughput
field count 40201
field mean 20101
field stddev 11605.173422516
field sum 808080301
field sqrsum 21657360147101
field min 1
field max 40201
statistic Basic.rack[2].node[6].app 	"End-to-End Delay"
field count 40201
field mean 7.949527653068e-006
field stddev 4.6754360977102e-006
field sum 0.31957896118099
field sqrsum 3.4192618379387e-006
field min 8.496e-007
field max 4.5169702e-005
statistic Basic.rack[2].node[6].app 	hops
field count 40201
field mean 4.2532275316534
field stddev 0.82952578504464
field sum 170984
field sqrsum 754896
field min 3
field max 5
statistic Basic.rack[2].node[7].app 	throughput
field count 39954
field mean 19977.5
field stddev 11533.870664265
field sum 798181035
field sqrsum 21260616108605
field min 1
field max 39954
statistic Basic.rack[2].node[7].app 	"End-to-End Delay"
field count 39954
field mean 7.9147137213292e-006
field stddev 4.7439174417468e-006
field sum 0.31622447202199
field sqrsum 3.4019585521203e-006
field min 8.496e-007
field max 4.8020348e-005
statistic Basic.rack[2].node[7].app 	hops
field count 39954
field mean 4.2481854132252
field stddev 0.82757450997218
field sum 169732
field sqrsum 748416
field min 3
field max 5
statistic Basic.rack[2].node[8].app 	throughput
field count 40184
field mean 20092.5
field stddev 11600.265945227
field sum 807397020
field sqrsum 21629897033460
field min 1
field max 40184
statistic Basic.rack[2].node[8].app 	"End-to-End Delay"
field count 40184
field mean 7.9784013985414e-006
field stddev 4.7285321564208e-006
field sum 0.32060408179899
field sqrsum 3.4563604087682e-006
field min 8.496e-007
field max 4.1170781e-005
statistic Basic.rack[2].node[8].app 	hops
field count 40184
field mean 4.248233127613
field stddev 0.83103087335667
field sum 170711
field sqrsum 752971
field min 3
field max 5
statistic Basic.rack[2].node[9].app 	throughput
field count 40111
field mean 20056
field stddev 11579.1926604
field sum 804466216
field sqrsum 21512231082056
field min 1
field max 40111
statistic Basic.rack[2].node[9].app 	"End-to-End Delay"
field count 40111
field mean 7.9311431360472e-006
field stddev 4.7151353054491e-006
field sum 0.31812608232999
field sqrsum 3.4148491073211e-006
field min 8.496e-007
field max 4.3266597e-005
statistic Basic.rack[2].node[9].app 	hops
field count 40111
field mean 4.24599237117
field stddev 0.82957957760771
field sum 170311
field sqrsum 750743
field min 3
field max 5
statistic Basic.rack[2].eps.queue[0] 	dropsum
field count 0
field mean nan
field stddev nan
field sum 0
field sqrsum 0
field min nan
field max nan
statistic Basic.rack[2].eps.queue[1] 	dropsum
field count 0
field mean nan
field stddev nan
field sum 0
field sqrsum 0
field min nan
field max nan
statistic Basic.rack[2].eps.queue[2] 	dropsum
field count 0
field mean nan
field stddev nan
field sum 0
field sqrsum 0
field min nan
field max nan
statistic Basic.rack[2].eps.queue[3] 	dropsum
field count 0
field mean nan
field stddev nan
field sum 0
field sqrsum 0
field min nan
field max nan
statistic Basic.rack[3].node[0].app 	throughput
field count 39909
field mean 19955
field stddev 11520.880283208
field sum 796384095
field sqrsum 21188860692935
field min 1
field max 39909
statistic Basic.rack[3].node[0].app 	"End-to-End Delay"
field count 39909
field mean 7.9668338109698e-006
field stddev 4.7153385297926e-006
field sum 0.31794837056199
field sqrsum 3.4203729603524e-006
field min 8.496e-007
field max 3.8587026e-005
statistic Basic.rack[3].node[0].app 	hops
field count 39909
field mean 4.2512966999925
field stddev 0.82930721747407
field sum 169665
field sqrsum 748743
field min 3
field max 5
statistic Basic.rack[3].node[1].app 	throughput
field count 39970
field mean 19985.5
field stddev 11538.489466419
field sum 798820435
field sqrsum 21286168131445
field min 1
field max 39970
statistic Basic.rack[3].node[1].app 	"End-to-End Delay"
field count 39970
field mean 7.936776909607e-006
field stddev 4.6825748993509e-006
field sum 0.31723297307699
field sqrsum 3.3941879214663e-006
field min 8.496e-007
field max 4.043388e-005
statistic Basic.rack[3].node[1].app 	hops
field count 39970
field mean 4.2449587190393
field stddev 0.83129464927452
field sum 169671
field sqrsum 747867
field min 3
field max 5
statistic Basic.rack[3].node[2].app 	throughput
field count 39924
field mean 19962.5
field stddev 11525.210410227
field sum 796982850
field sqrsum 21212761196550
field min 1
field max 39924
statistic Basic.rack[3].node[2].app 	"End-to-End Delay"
field count 39924
field mean 7.9248499072735e-006
field stddev 4.6945371998239e-006
field sum 0.31639170769799
field sqrsum 3.3872069979106e-006
field min 8.496e-007
field max 4.0442707e-005
statistic Basic.rack[3].node[2].app 	hops
field count 39924
field mean 4.2490982867448
field stddev 0.82880350525014
field sum 169641
field sqrsum 748245
field min 3
field max 5
statistic Basic.rack[3].node[3].app 	throughput
field count 40029
field mean 20015
field stddev 11555.521299362
field sum 801180435
field sqrsum 21380568148555
field min 1
field max 40029
statistic Basic.rack[3].node[3].app 	"End-to-End Delay"
field count 40029
field mean 7.9503439205324e-006
field stddev 4.7075233599357e-006
field sum 0.31824431679499
field sqrsum 3.4172033183818e-006
field min 8.496e-007
field max 3.9551108e-005
statistic Basic.rack[3].node[3].app 	hops
field count 40029
field mean 4.2508681206126
field stddev 0.82936003742045
field sum 170158
field sqrsum 750852
field min 3
field max 5
statistic Basic.rack[3].node[4].app 	throughput
field count 40163
field mean 20082
field stddev 11594.2037674
field sum 806553366
field sqrsum 21596004076894
field min 1
field max 40163
statistic Basic.rack[3].node[4].app 	"End-to-End Delay"
field count 40163
field mean 7.9013268329554e-006
field stddev 4.6937711158195e-006
field sum 0.31734098959199
field sqrsum 3.3922434687085e-006
field min 8.496e-007
field max 4.7571045e-005
statistic Basic.rack[3].node[4].app 	hops
field count 40163
field mean 4.2443542564051
field stddev 0.82985457508953
field sum 170466
field sqrsum 751176
field min 3
field max 5
statistic Basic.rack[3].node[5].app 	throughput
field count 39875
field mean 19938
field stddev 11511.065328631
field sum 795027750
field sqrsum 21134752696750
field min 1
field max 39875
statistic Basic.rack[3].node[5].app 	"End-to-End Delay"
field count 39875
field mean 7.9183278491032e-006
field stddev 4.7036400622463e-006
field sum 0.31574332298299
field sqrsum 3.3823406879921e-006
field min 8.496e-007
field max 4.6754882e-005
statistic Basic.rack[3].node[5].app 	hops
field count 39875
field mean 4.2480752351097
field stddev 0.82895450170074
field sum 169392
field sqrsum 746990
field min 3
field max 5
statistic Basic.rack[3].node[6].app 	throughput
field count 40002
field mean 20001.5
field stddev 11547.727070727
field sum 800100003
field sqrsum 21337333580005
field min 1
field max 40002
statistic Basic.rack[3].node[6].app 	"End-to-End Delay"
field count 40002
field mean 7.9081507845105e-006
field stddev 4.7098238025766e-006
field sum 0.31634184768199
field sqrsum 3.3889988234128e-006
field min 8.496e-007
field max 4.8346898e-005
statistic Basic.rack[3].node[6].app 	hops
field count 40002
field mean 4.2476626168692
field stddev 0.82835258626188
field sum 169915
field sqrsum 749189
field min 3
field max 5
statistic Basic.rack[3].node[7].app 	throughput
field count 39861
field mean 19931
field stddev 11507.023876746
field sum 794469591
field sqrsum 21112499734431
field min 1
field max 39861
statistic Basic.rack[3].node[7].app 	"End-to-End Delay"
field count 39861
field mean 7.89983380151e-006
field stddev 4.6984225078309e-006
field sum 0.31489527516199
field sqrsum 3.3675367767754e-006
field min 8.496e-007
field max 5.2758391e-005
statistic Basic.rack[3].node[7].app 	hops
field count 39861
field mean 4.2469080053185
field stddev 0.82840217337618
field sum 169286
field sqrsum 746296
field min 3
field max 5
statistic Basic.rack[3].node[8].app 	throughput
field count 39747
field mean 19874
field stddev 11474.114911399
field sum 789931878
field sqrsum 20931878213870
field min 1
field max 39747
statistic Basic.rack[3].node[8].app 	"End-to-End Delay"
field count 39747
field mean 7.868643572999e-006
field stddev 4.7113880111883e-006
field sum 0.31275497609599
field sqrsum 3.343206429304e-006
field min 8.496e-007
field max 4.3606876e-005
statistic Basic.rack[3].node[8].app 	hops
field count 39747
field mean 4.2467104435555
field stddev 0.82702000825836
field sum 168794
field sqrsum 744004
field min 3
field max 5
statistic Basic.rack[3].node[9].app 	throughput
field count 39814
field mean 19907.5
field stddev 11493.456145419
field sum 792597205
field sqrsum 21037907612315
field min 1
field max 39814
statistic Basic.rack[3].node[9].app 	"End-to-End Delay"
field count 39814
field mean 7.9102593315666e-006
field stddev 4.7167527240999e-006
field sum 0.31493906502699
field sqrsum 3.3769995979961e-006
field min 8.496e-007
field max 4.844773e-005
statistic Basic.rack[3].node[9].app 	hops
field count 39814
field mean 4.2465213241573
field stddev 0.82861007725043
field sum 169071
field sqrsum 745299
field min 3
field max 5
statistic Basic.rack[3].eps.queue[0] 	dropsum
field count 0
field mean nan
field stddev nan
field sum 0
field sqrsum 0
field min nan
field max nan
statistic Basic.rack[3].eps.queue[1] 	dropsum
field count 0
field mean nan
field stddev nan
field sum 0
field sqrsum 0
field min nan
field max nan
statistic Basic.rack[3].eps.queue[2] 	dropsum
field count 0
field mean nan
field stddev nan
field sum 0
field sqrsum 0
field min nan
field max nan
statistic Basic.rack[3].eps.queue[3] 	dropsum
field count 0
field mean nan
field stddev nan
field sum 0
field sqrsum 0
field min nan
field max nan
statistic Basic.rack[4].node[0].app 	throughput
field count 39846
field mean 19923.5
field stddev 11502.693749727
field sum 793871781
field sqrsum 21088674614411
field min 1
field max 39846
statistic Basic.rack[4].node[0].app 	"End-to-End Delay"
field count 39846
field mean 1.7443847682434e-005
field stddev 1.3085809962421e-005
field sum 0.69506755475427
field sqrsum 1.8947647493572e-005
field min 8.992e-006
field max 7.7242908e-005
statistic Basic.rack[4].node[0].app 	hops
field count 39846
field mean 4.259524168047
field stddev 1.3024418949239
field sum 169725
field sqrsum 790539
field min 3
field max 6
statistic Basic.rack[4].node[1].app 	throughput
field count 40016
field mean 20008.5
field stddev 11551.768522612
field sum 800660136
field sqrsum 21359744221496
field min 1
field max 40016
statistic Basic.rack[4].node[1].app 	"End-to-End Delay"
field count 40016
field mean 1.7344157377406e-005
field stddev 1.3003695705638e-005
field sum 0.69404380161427
field sqrsum 1.8803985443734e-005
field min 8.992e-006
field max 7.7512149e-005
statistic Basic.rack[4].node[1].app 	hops
field count 40016
field mean 4.2552229108357
field stddev 1.2989909328973
field sum 170277
field sqrsum 792087
field min 3
field max 6
statistic Basic.rack[4].node[2].app 	throughput
field count 40109
field mean 20055
field stddev 11578.615310131
field sum 804385995
field sqrsum 21509013377635
field min 1
field max 40109
statistic Basic.rack[4].node[2].app 	"End-to-End Delay"
field count 40109
field mean 1.7297245949145e-005
field stddev 1.3003565133468e-005
field sum 0.69377523777427
field sqrsum 1.878237118069e-005
field min 8.992e-006
field max 8.6234775e-005
statistic Basic.rack[4].node[2].app 	hops
field count 40109
field mean 4.2540576927872
field stddev 1.2968184567879
field sum 170626
field sqrsum 793304
field min 3
field max 6
statistic Basic.rack[4].node[3].app 	throughput
field count 40244
field mean 20122.5
field stddev 11617.586453304
field sum 809809890
field sqrsum 21726929412070
field min 1
field max 40244
statistic Basic.rack[4].node[3].app 	"End-to-End Delay"
field count 40244
field mean 1.7271576437935e-005
field stddev 1.2952431654604e-005
field sum 0.69507732216827
field sqrsum 1.8756467543834e-005
field min 8.992e-006
field max 8.9247701e-005
statistic Basic.rack[4].node[3].app 	hops
field count 40244
field mean 4.2461733426101
field stddev 1.2974886879008
field sum 170883
field sqrsum 793347
field min 3
field max 6
statistic Basic.rack[4].node[4].app 	throughput
field count 39984
field mean 19992.5
field stddev 11542.530918304
field sum 799380120
field sqrsum 21308542938760
field min 1
field max 39984
statistic Basic.rack[4].node[4].app 	"End-to-End Delay"
field count 39984
field mean 1.7228508508235e-005
field stddev 1.2948781670389e-005
field sum 0.68886468419326
field sqrsum 1.8572098536447e-005
field min 8.992e-006
field max 8.1525812e-005
statistic Basic.rack[4].node[4].app 	hops
field count 39984
field mean 4.2433723489396
field stddev 1.2964694156877
field sum 169667
field sqrsum 787165
field min 3
field max 6
statistic Basic.rack[4].node[5].app 	throughput
field count 39872
field mean 19936.5
field stddev 11510.199303227
field sum 794908128
field sqrsum 21129982889120
field min 1
field max 39872
statistic Basic.rack[4].node[5].app 	"End-to-End Delay"
field count 39872
field mean 1.7366407035019e-005
field stddev 1.300750314215e-005
field sum 0.69243338130026
field sqrsum 1.8771059291215e-005
field min 8.992e-006
field max 8.2754585e-005
statistic Basic.rack[4].node[5].app 	hops
field count 39872
field mean 4.2541633226324
field stddev 1.3011986888446
field sum 169622
field sqrsum 789106
field min 3
field max 6
statistic Basic.rack[4].node[6].app 	throughput
field count 40005
field mean 20003
field stddev 11548.593096131
field sum 800220015
field sqrsum 21342134540055
field min 1
field max 40005
statistic Basic.rack[4].node[6].app 	"End-to-End Delay"
field count 40005
field mean 1.7350085920317e-005
field stddev 1.2974015193957e-005
field sum 0.69409018724226
field sqrsum 1.8776200495503e-005
field min 8.992e-006
field max 9.800166e-005
statistic Basic.rack[4].node[6].app 	hops
field count 40005
field mean 4.26144231971
field stddev 1.2988439744199
field sum 170479
field sqrsum 793973
field min 3
field max 6
statistic Basic.rack[4].node[7].app 	throughput
field count 39958
field mean 19979.5
field stddev 11535.025364804
field sum 798340861
field sqrsum 21267002196179
field min 1
field max 39958
statistic Basic.rack[4].node[7].app 	"End-to-End Delay"
field count 39958
field mean 1.7216936381732e-005
field stddev 1.2882255824074e-005
field sum 0.68795434394126
field sqrsum 1.8475430819699e-005
field min 8.992e-006
field max 7.829965e-005
statistic Basic.rack[4].node[7].app 	hops
field count 39958
field mean 4.2450322838981
field stddev 1.295067648016
field sum 169623
field sqrsum 787071
field min 3
field max 6
statistic Basic.rack[4].node[8].app 	throughput
field count 39768
field mean 19884.5
field stddev 11480.177089226
field sum 790766796
field sqrsum 20965072884484
field min 1
field max 39768
statistic Basic.rack[4].node[8].app 	"End-to-End Delay"
field count 39768
field mean 1.7355855709899e-005
field stddev 1.3009830499317e-005
field sum 0.69020766987126
field sqrsum 1.8709935737308e-005
field min 8.992e-006
field max 7.9794838e-005
statistic Basic.rack[4].node[8].app 	hops
field count 39768
field mean 4.2550040233353
field stddev 1.2989818865921
field sum 169213
field sqrsum 787103
field min 3
field max 6
statistic Basic.rack[4].node[9].app 	throughput
field count 40023
field mean 20012
field stddev 11553.789248554
field sum 800940276
field sqrsum 21370955424324
field min 1
field max 40023
statistic Basic.rack[4].node[9].app 	"End-to-End Delay"
field count 40023
field mean 1.7484510746577e-005
field stddev 1.3070006348499e-005
field sum 0.69978257361026
field sqrsum 1.9072116717999e-005
field min 8.992e-006
field max 8.9238089e-005
statistic Basic.rack[4].node[9].app 	hops
field count 40023
field mean 4.2553281862929
field stddev 1.3044191050218
field sum 170311
field sqrsum 792827
field min 3
field max 6
statistic Basic.rack[4].eps.queue[0] 	dropsum
field count 0
field mean nan
field stddev nan
field sum 0
field sqrsum 0
field min nan
field max nan
statistic Basic.rack[4].eps.queue[1] 	dropsum
field count 0
field mean nan
field stddev nan
field sum 0
field sqrsum 0
field min nan
field max nan
statistic Basic.rack[4].eps.queue[2] 	dropsum
field count 0
field mean nan
field stddev nan
field sum 0
field sqrsum 0
field min nan
field max nan
statistic Basic.rack[4].eps.queue[3] 	dropsum
field count 0
field mean nan
field stddev nan
field sum 0
field sqrsum 0
field min nan
field max nan
statistic Basic.rack[5].node[0].app 	throughput
field count 40074
field mean 20037.5
field stddev 11568.511680419
field sum 802982775
field sqrsum 21452755477825
field min 1
field max 40074
statistic Basic.rack[5].node[0].app 	"End-to-End Delay"
field count 40074
field mean 1.7643551526807e-005
field stddev 1.2992809128387e-005
field sum 0.70704768388527
field sqrsum 1.9239679159907e-005
field min 8.992e-006
field max 8.6247988e-005
statistic Basic.rack[5].node[0].app 	hops
field count 40074
field mean 4.2549283824924
field stddev 1.2999835073448
field sum 170512
field sqrsum 793238
field min 3
field max 6
statistic Basic.rack[5].node[1].app 	throughput
field count 40177
field mean 20089
field stddev 11598.245219285
field sum 807115753
field sqrsum 21618595444105
field min 1
field max 40177
statistic Basic.rack[5].node[1].app 	"End-to-End Delay"
field count 40177
field mean 1.7659263941789e-005
field stddev 1.3034539066683e-005
field sum 0.70949624738927
field sqrsum 1.9355052106319e-005
field min 8.992e-006
field max 8.9737028e-005
statistic Basic.rack[5].node[1].app 	hops
field count 40177
field mean 4.2539761555119
field stddev 1.3014637635549
field sum 170912
field sqrsum 795106
field min 3
field max 6
statistic Basic.rack[5].node[2].app 	throughput
field count 39942
field mean 19971.5
field stddev 11530.40656265
field sum 797701653
field sqrsum 21241465516635
field min 1
field max 39942
statistic Basic.rack[5].node[2].app 	"End-to-End Delay"
field count 39942
field mean 1.760607018157e-005
field stddev 1.3033867320848e-005
field sum 0.70322165519226
field sqrsum 1.916621468787e-005
field min 8.992e-006
field max 8.7640371e-005
statistic Basic.rack[5].node[2].app 	hops
field count 39942
field mean 4.248510339993
field stddev 1.3006834860907
field sum 169694
field sqrsum 788518
field min 3
field max 6
statistic Basic.rack[5].node[3].app 	throughput
field count 39708
field mean 19854.5
field stddev 11462.856581149
field sum 788382486
field sqrsum 20870323963554
field min 1
field max 39708
statistic Basic.rack[5].node[3].app 	"End-to-End Delay"
field count 39708
field mean 1.7711461305235e-005
field stddev 1.3110514616553e-005
field sum 0.70328670550826
field sqrsum 1.928129653263e-005
field min 8.992e-006
field max 8.5648075e-005
statistic Basic.rack[5].node[3].app 	hops
field count 39708
field mean 4.2669235418555
field stddev 1.3006299182304
field sum 169431
field sqrsum 790119
field min 3
field max 6
statistic Basic.rack[5].node[4].app 	throughput
field count 39930
field mean 19965.5
field stddev 11526.942461034
field sum 797222415
field sqrsum 21222326428105
field min 1
field max 39930
statistic Basic.rack[5].node[4].app 	"End-to-End Delay"
field count 39930
field mean 1.7595958559611e-005
field stddev 1.2994609475753e-005
field sum 0.70260662528527
field sqrsum 1.9105443028165e-005
field min 8.992e-006
field max 8.4890478e-005
statistic Basic.rack[5].node[4].app 	hops
field count 39930
field mean 4.2533183070373
field stddev 1.3006228347137
field sum 169835
field sqrsum 789907
field min 3
field max 6
statistic Basic.rack[5].node[5].app 	throughput
field count 40380
field mean 20190.5
field stddev 11656.846271612
field sum 815292390
field sqrsum 21947942902930
field min 1
field max 40380
statistic Basic.rack[5].node[5].app 	"End-to-End Delay"
field count 40380
field mean 1.7581433546713e-005
field stddev 1.3020310973088e-005
field sum 0.70993828661627
field sqrsum 1.9327124022528e-005
field min 8.992e-006
field max 9.9023127e-005
statistic Basic.rack[5].node[5].app 	hops
field count 40380
field mean 4.2523526498266
field stddev 1.299371346304
field sum 171710
field sqrsum 798346
field min 3
field max 6
statistic Basic.rack[5].node[6].app 	throughput
field count 39878
field mean 19939.5
field stddev 11511.931354034
field sum 795147381
field sqrsum 21139523222139
field min 1
field max 39878
statistic Basic.rack[5].node[6].app 	"End-to-End Delay"
field count 39878
field mean 1.7566277829737e-005
field stddev 1.296097743167e-005
field sum 0.70050802729425
field sqrsum 1.9004133675656e-005
field min 8.992e-006
field max 8.8016645e-005
statistic Basic.rack[5].node[6].app 	hops
field count 39878
field mean 4.2517428155875
field stddev 1.2982977301532
field sum 169551
field sqrsum 788103
field min 3
field max 6
statistic Basic.rack[5].node[7].app 	throughput
field count 39863
field mean 19932
field stddev 11507.601227015
field sum 794549316
field sqrsum 21115677772244
field min 1
field max 39863
statistic Basic.rack[5].node[7].app 	"End-to-End Delay"
field count 39863
field mean 1.7562532283177e-005
field stddev 1.2911037921394e-005
field sum 0.70009522440427
field sqrsum 1.8940237091976e-005
field min 8.992e-006
field max 8.5714561e-005
statistic Basic.rack[5].node[7].app 	hops
field count 39863
field mean 4.2474976795525
field stddev 1.3005537920097
field sum 169318
field sqrsum 786602
field min 3
field max 6
statistic Basic.rack[5].node[8].app 	throughput
field count 40039
field mean 20020
field stddev 11558.408050708
field sum 801580780
field sqrsum 21396595760540
field min 1
field max 40039
statistic Basic.rack[5].node[8].app 	"End-to-End Delay"
field count 40039
field mean 1.7487609119615e-005
field stddev 1.2882934123981e-005
field sum 0.70018638154026
field sqrsum 1.888969227665e-005
field min 8.992e-006
field max 7.8219235e-005
statistic Basic.rack[5].node[8].app 	hops
field count 40039
field mean 4.2458353105722
field stddev 1.2974905657734
field sum 169999
field sqrsum 789191
field min 3
field max 6
statistic Basic.rack[5].node[9].app 	throughput
field count 40090
field mean 20045.5
field stddev 11573.130482573
field sum 803624095
field sqrsum 21478461187065
field min 1
field max 40090
statistic Basic.rack[5].node[9].app 	"End-to-End Delay"
field count 40090
field mean 1.7693819476709e-005
field stddev 1.3060043232948e-005
field sum 0.70934522282127
field sqrsum 1.9388795750027e-005
field min 8.992e-006
field max 8.3820104e-005
statistic Basic.rack[5].node[9].app 	hops
field count 40090
field mean 4.2648291344475
field stddev 1.3000470011053
field sum 170977
field sqrsum 796943
field min 3
field max 6
statistic Basic.rack[5].eps.queue[0] 	dropsum
field count 0
field mean nan
field stddev nan
field sum 0
field sqrsum 0
field min nan
field max nan
statistic Basic.rack[5].eps.queue[1] 	dropsum
field count 0
field mean nan
field stddev nan
field sum 0
field sqrsum 0
field min nan
field max nan
statistic Basic.rack[5].eps.queue[2] 	dropsum
field count 0
field mean nan
field stddev nan
field sum 0
field sqrsum 0
field min nan
field max nan
statistic Basic.rack[5].eps.queue[3] 	dropsum
field count 0
field mean nan
field stddev nan
field sum 0
field sqrsum 0
field min nan
field max nan
statistic Basic.rack[6].node[0].app 	throughput
field count 40414
field mean 20207.5
field stddev 11666.661226189
field sum 816665905
field sqrsum 22003429478415
field min 1
field max 40414
statistic Basic.rack[6].node[0].app 	"End-to-End Delay"
field count 40414
field mean 8.200181640149e-006
field stddev 4.9797588848172e-006
field sum 0.33140214080498
field sqrsum 3.7197192659732e-006
field min 8.496e-007
field max 4.3262786e-005
statistic Basic.rack[6].node[0].app 	hops
field count 40414
field mean 4.2405602019102
field stddev 0.83286835888979
field sum 171378
field sqrsum 754772
field min 3
field max 5
statistic Basic.rack[6].node[1].app 	throughput
field count 40064
field mean 20032.5
field stddev 11565.624929073
field sum 802582080
field sqrsum 21436699829440
field min 1
field max 40064
statistic Basic.rack[6].node[1].app 	"End-to-End Delay"
field count 40064
field mean 8.1782051912936e-006
field stddev 4.9843414566888e-006
field sum 0.32765161278399
field sqrsum 3.6749136614451e-006
field min 8.496e-007
field max 5.0029116e-005
statistic Basic.rack[6].node[1].app 	hops
field count 40064
field mean 4.2501248003195
field stddev 0.82878262975302
field sum 170277
field sqrsum 751217
field min 3
field max 5
statistic Basic.rack[6].node[2].app 	throughput
field count 40234
field mean 20117.5
field stddev 11614.699701958
field sum 809407495
field sqrsum 21710737238385
field min 1
field max 40234
statistic Basic.rack[6].node[2].app 	"End-to-End Delay"
field count 40234
field mean 8.1768655260472e-006
field stddev 4.956619961964e-006
field sum 0.32898800757498
field sqrsum 3.6785383184937e-006
field min 8.496e-007
field max 4.9760576e-005
statistic Basic.rack[6].node[2].app 	hops
field count 40234
field mean 4.2436993587513
field stddev 0.83183985357995
field sum 170741
field sqrsum 752413
field min 3
field max 5
statistic Basic.rack[6].node[3].app 	throughput
field count 39971
field mean 19986
field stddev 11538.778141554
field sum 798860406
field sqrsum 21287765812286
field min 1
field max 39971
statistic Basic.rack[6].node[3].app 	"End-to-End Delay"
field count 39971
field mean 8.2157952613891e-006
field stddev 4.9823795369121e-006
field sum 0.32839355239298
field sqrsum 3.6902337024391e-006
field min 8.496e-007
field max 4.5082529e-005
statistic Basic.rack[6].node[3].app 	hops
field count 39971
field mean 4.2518325786195
field stddev 0.8297244503979
field sum 169950
field sqrsum 750116
field min 3
field max 5
statistic Basic.rack[6].node[4].app 	throughput
field count 39824
field mean 19912.5
field stddev 11496.342896765
field sum 792995400
field sqrsum 21053763538200
field min 1
field max 39824
statistic Basic.rack[6].node[4].app 	"End-to-End Delay"
field count 39824
field mean 8.159716438278e-006
field stddev 4.9590579202166e-006
field sum 0.32495254743798
field sqrsum 3.6308580320168e-006
field min 8.496e-007
field max 4.1431618e-005
statistic Basic.rack[6].node[4].app 	hops
field count 39824
field mean 4.2469114102049
field stddev 0.82931983636684
field sum 169129
field sqrsum 745665
field min 3
field max 5
statistic Basic.rack[6].node[5].app 	throughput
field count 40056
field mean 20028.5
field stddev 11563.315527996
field sum 802261596
field sqrsum 21423861080116
field min 1
field max 40056
statistic Basic.rack[6].node[5].app 	"End-to-End Delay"
field count 40056
field mean 8.1808081353102e-006
field stddev 4.9346891992835e-006
field sum 0.32769045066799
field sqrsum 3.6561583180913e-006
field min 8.496e-007
field max 4.4522644e-005
statistic Basic.rack[6].node[5].app 	hops
field count 40056
field mean 4.2465797882964
field stddev 0.83152724497223
field sum 170101
field sqrsum 750043
field min 3
field max 5
statistic Basic.rack[6].node[6].app 	throughput
field count 40025
field mean 20013
field stddev 11554.366598823
field sum 801020325
field sqrsum 21374159345525
field min 1
field max 40025
statistic Basic.rack[6].node[6].app 	"End-to-End Delay"
field count 40025
field mean 8.2144279116798e-006
field stddev 5.0079209070967e-006
field sum 0.32878247716498
field sqrsum 3.7045327322882e-006
field min 8.496e-007
field max 4.7466985e-005
statistic Basic.rack[6].node[6].app 	hops
field count 40025
field mean 4.2540162398501
field stddev 0.82864252435909
field sum 170267
field sqrsum 751801
field min 3
field max 5
statistic Basic.rack[6].node[7].app 	throughput
field count 39988
field mean 19994.5
field stddev 11543.685618842
field sum 799540066
field sqrsum 21314938619494
field min 1
field max 39988
statistic Basic.rack[6].node[7].app 	"End-to-End Delay"
field count 39988
field mean 8.1949569139489e-006
field stddev 4.9766427501858e-006
field sum 0.32769993707499
field sqrsum 3.6758438169025e-006
field min 8.496e-007
field max 3.772789e-005
statistic Basic.rack[6].node[7].app 	hops
field count 39988
field mean 4.2453736120836
field stddev 0.83107419967271
field sum 169764
field sqrsum 748330
field min 3
field max 5
statistic Basic.rack[6].node[8].app 	throughput
field count 40075
field mean 20038
field stddev 11568.800355554
field sum 803022850
field sqrsum 21454361483450
field min 1
field max 40075
statistic Basic.rack[6].node[8].app 	"End-to-End Delay"
field count 40075
field mean 8.1813872924513e-006
field stddev 4.9465900398359e-006
field sum 0.32786909574499
field sqrsum 3.6629848621273e-006
field min 8.496e-007
field max 4.5255453e-005
statistic Basic.rack[6].node[8].app 	hops
field count 40075
field mean 4.2484341859014
field stddev 0.83056518699553
field sum 170256
field sqrsum 750966
field min 3
field max 5
statistic Basic.rack[6].node[9].app 	throughput
field count 39878
field mean 19939.5
field stddev 11511.931354034
field sum 795147381
field sqrsum 21139523222139
field min 1
field max 39878
statistic Basic.rack[6].node[9].app 	"End-to-End Delay"
field count 39878
field mean 8.1760717724556e-006
field stddev 4.9474506060703e-006
field sum 0.32604539014199
field sqrsum 3.641850506957e-006
field min 8.496e-007
field max 4.4888653e-005
statistic Basic.rack[6].node[9].app 	hops
field count 39878
field mean 4.2483574903456
field stddev 0.83064936578242
field sum 169416
field sqrsum 747254
field min 3
field max 5
statistic Basic.rack[6].eps.queue[0] 	dropsum
field count 0
field mean nan
field stddev nan
field sum 0
field sqrsum 0
field min nan
field max nan
statistic Basic.rack[6].eps.queue[1] 	dropsum
field count 0
field mean nan
field stddev nan
field sum 0
field sqrsum 0
field min nan
field max nan
statistic Basic.rack[6].eps.queue[2] 	dropsum
field count 0
field mean nan
field stddev nan
field sum 0
field sqrsum 0
field min nan
field max nan
statistic Basic.rack[6].eps.queue[3] 	dropsum
field count 0
field mean nan
field stddev nan
field sum 0
field sqrsum 0
field min nan
field max nan
statistic Basic.rack[7].node[0].app 	throughput
field count 40071
field mean 20036
field stddev 11567.645655016
field sum 802862556
field sqrsum 21447937941836
field min 1
field max 40071
statistic Basic.rack[7].node[0].app 	"End-to-End Delay"
field count 40071
field mean 8.1826997786425e-006
field stddev 4.9123072696418e-006
field sum 0.32788896282998
field sqrsum 3.649936605413e-006
field min 8.496e-007
field max 4.2602441e-005
statistic Basic.rack[7].node[0].app 	hops
field count 40071
field mean 4.2528511891393
field stddev 0.83032900878571
field sum 170416
field sqrsum 752380
field min 3
field max 5
statistic Basic.rack[7].node[1].app 	throughput
field count 39572
field mean 19786.5
field stddev 11423.596762841
field sum 782991378
field sqrsum 20656617537270
field min 1
field max 39572
statistic Basic.rack[7].node[1].app 	"End-to-End Delay"
field count 39572
field mean 8.1634795605728e-006
field stddev 4.9401381534985e-006
field sum 0.32304521317099
field sqrsum 3.6029018639137e-006
field min 8.496e-007
field max 4.1779596e-005
statistic Basic.rack[7].node[1].app 	hops
field count 39572
field mean 4.2521732538158
field stddev 0.82838627949782
field sum 168267
field sqrsum 742655
field min 3
field max 5
statistic Basic.rack[7].node[2].app 	throughput
field count 40191
field mean 20096
field stddev 11602.28667117
field sum 807678336
field sqrsum 21641202560896
field min 1
field max 40191
statistic Basic.rack[7].node[2].app 	"End-to-End Delay"
field count 40191
field mean 8.2191444282796e-006
field stddev 4.920138528351e-006
field sum 0.33033563371699
field sqrsum 3.68798628385e-006
field min 8.496e-007
field max 4.7690688e-005
statistic Basic.rack[7].node[2].app 	hops
field count 40191
field mean 4.254459953721
field stddev 0.83104478400717
field sum 170991
field sqrsum 755231
field min 3
field max 5
statistic Basic.rack[7].node[3].app 	throughput
field count 39905
field mean 19953
field stddev 11519.725582669
field sum 796224465
field sqrsum 21182490258705
field min 1
field max 39905
statistic Basic.rack[7].node[3].app 	"End-to-End Delay"
field count 39905
field mean 8.1715512269385e-006
field stddev 4.9555390584757e-006
field sum 0.32608575171098
field sqrsum 3.6445636116176e-006
field min 8.496e-007
field max 4.5096385e-005
statistic Basic.rack[7].node[3].app 	hops
field count 39905
field mean 4.2533015912793
field stddev 0.82842487803798
field sum 169728
field sqrsum 749290
field min 3
field max 5
statistic Basic.rack[7].node[4].app 	throughput
field count 39848
field mean 19924.5
field stddev 11503.271099996
field sum 793951476
field sqrsum 21091850260924
field min 1
field max 39848
statistic Basic.rack[7].node[4].app 	"End-to-End Delay"
field count 39848
field mean 8.2011870446694e-006
field stddev 4.9972198438564e-006
field sum 0.32680090135599
field sqrsum 3.6752228175566e-006
field min 8.496e-007
field max 6.7292274e-005
statistic Basic.rack[7].node[4].app 	hops
field count 39848
field mean 4.2508532423208
field stddev 0.82960491152525
field sum 169388
field sqrsum 747468
field min 3
field max 5
statistic Basic.rack[7].node[5].app 	throughput
field count 39704
field mean 19852.5
field stddev 11461.701880611
field sum 788223660
field sqrsum 20864017538980
field min 1
field max 39704
statistic Basic.rack[7].node[5].app 	"End-to-End Delay"
field count 39704
field mean 8.1436438648243e-006
field stddev 4.9710396083264e-006
field sum 0.32333523600899
field sqrsum 3.6142371657762e-006
field min 8.496e-007
field max 5.4602016e-005
statistic Basic.rack[7].node[5].app 	hops
field count 39704
field mean 4.2479347169051
field stddev 0.82826747900009
field sum 168660
field sqrsum 743694
field min 3
field max 5
statistic Basic.rack[7].node[6].app 	throughput
field count 39894
field mean 19947.5
field stddev 11516.550156188
field sum 795785565
field sqrsum 21164978148595
field min 1
field max 39894
statistic Basic.rack[7].node[6].app 	"End-to-End Delay"
field count 39894
field mean 8.1740523547146e-006
field stddev 4.9677957504668e-006
field sum 0.32609564463898
field sqrsum 3.6500420042335e-006
field min 8.496e-007
field max 4.3298652e-005
statistic Basic.rack[7].node[6].app 	hops
field count 39894
field mean 4.2520930465734
field stddev 0.82820731792057
field sum 169633
field sqrsum 748659
field min 3
field max 5
statistic Basic.rack[7].node[7].app 	throughput
field count 40187
field mean 20094
field stddev 11601.131970631
field sum 807517578
field sqrsum 21634741777250
field min 1
field max 40187
statistic Basic.rack[7].node[7].app 	"End-to-End Delay"
field count 40187
field mean 8.1383790029857e-006
field stddev 4.9547779161498e-006
field sum 0.32705703699299
field sqrsum 3.648273357878e-006
field min 8.496e-007
field max 4.4674876e-005
statistic Basic.rack[7].node[7].app 	hops
field count 40187
field mean 4.2509518003334
field stddev 0.82774860151855
field sum 170833
field sqrsum 753737
field min 3
field max 5
statistic Basic.rack[7].node[8].app 	throughput
field count 39779
field mean 19890
field stddev 11483.352515707
field sum 791204310
field sqrsum 20982474566430
field min 1
field max 39779
statistic Basic.rack[7].node[8].app 	"End-to-End Delay"
field count 39779
field mean 8.1581788789056e-006
field stddev 4.9349060918299e-006
field sum 0.32452419762399
field sqrsum 3.616251947971e-006
field min 8.496e-007
field max 3.9212548e-005
statistic Basic.rack[7].node[8].app 	hops
field count 39779
field mean 4.2471153120993
field stddev 0.83008771537473
field sum 168946
field sqrsum 744942
field min 3
field max 5
statistic Basic.rack[7].node[9].app 	throughput
field count 40306
field mean 20153.5
field stddev 11635.484311651
field sum 812306971
field sqrsum 21827500617741
field min 1
field max 40306
statistic Basic.rack[7].node[9].app 	"End-to-End Delay"
field count 40306
field mean 8.1770553517339e-006
field stddev 4.9467331694037e-006
field sum 0.32958439300699
field sqrsum 3.6812999882169e-006
field min 8.496e-007
field max 5.8390584e-005
statistic Basic.rack[7].node[9].app 	hops
field count 40306
field mean 4.2450999851139
field stddev 0.8316654776667
field sum 171103
field sqrsum 754227
field min 3
field max 5
statistic Basic.rack[7].eps.queue[0] 	dropsum
field count 0
field mean nan
field stddev nan
field sum 0
field sqrsum 0
field min nan
field max nan
statistic Basic.rack[7].eps.queue[1] 	dropsum
field count 0
field mean nan
field stddev nan
field sum 0
field sqrsum 0
field min nan
field max nan
statistic Basic.rack[7].eps.queue[2] 	dropsum
field count 0
field mean nan
field stddev nan
field sum 0
field sqrsum 0
field min nan
field max nan
statistic Basic.rack[7].eps.queue[3] 	dropsum
field count 0
field mean nan
field stddev nan
field sum 0
field sqrsum 0
field min nan
field max nan
statistic Basic.rack[8].node[0].app 	throughput
field count 39895
field mean 19948
field stddev 11516.838831323
field sum 795825460
field sqrsum 21166569759620
field min 1
field max 39895
statistic Basic.rack[8].node[0].app 	"End-to-End Delay"
field count 39895
field mean 1.759230427766e-005
field stddev 1.2944312042885e-005
field sum 0.70184497915726
field sqrsum 1.9031518146914e-005
field min 8.992e-006
field max 9.5003749e-005
statistic Basic.rack[8].node[0].app 	hops
field count 39895
field mean 4.2543426494548
field stddev 1.3007067306265
field sum 169727
field sqrsum 789571
field min 3
field max 6
statistic Basic.rack[8].node[1].app 	throughput
field count 40076
field mean 20038.5
field stddev 11569.089030689
field sum 803062926
field sqrsum 21455967569226
field min 1
field max 40076
statistic Basic.rack[8].node[1].app 	"End-to-End Delay"
field count 40076
field mean 1.7358698302731e-005
field stddev 1.2836466491817e-005
field sum 0.69566719318026
field sqrsum 1.8679229920746e-005
field min 8.992e-006
field max 7.8021123e-005
statistic Basic.rack[8].node[1].app 	hops
field count 40076
field mean 4.2334813853678
field stddev 1.2950340843116
field sum 169661
field sqrsum 785467
field min 3
field max 6
statistic Basic.rack[8].node[2].app 	throughput
field count 39757
field mean 19879
field stddev 11477.001662746
field sum 790329403
field sqrsum 20947680826515
field min 1
field max 39757
statistic Basic.rack[8].node[2].app 	"End-to-End Delay"
field count 39757
field mean 1.7615105811285e-005
field stddev 1.3045520088571e-005
field sum 0.70032376173925
field sqrsum 1.9102175655417e-005
field min 8.992e-006
field max 9.5279484e-005
statistic Basic.rack[8].node[2].app 	hops
field count 39757
field mean 4.2523580753075
field stddev 1.2995495925653
field sum 169061
field sqrsum 786049
field min 3
field max 6
statistic Basic.rack[8].node[3].app 	throughput
field count 40007
field mean 20004
field stddev 11549.1704464
field sum 800300028
field sqrsum 21345335580140
field min 1
field max 40007
statistic Basic.rack[8].node[3].app 	"End-to-End Delay"
field count 40007
field mean 1.763230238264e-005
field stddev 1.2958944536633e-005
field sum 0.70541552142226
field sqrsum 1.9156477124727e-005
field min 8.992e-006
field max 8.2364175e-005
statistic Basic.rack[8].node[3].app 	hops
field count 40007
field mean 4.2589546829305
field stddev 1.3009138636316
field sum 170388
field sqrsum 793380
field min 3
field max 6
statistic Basic.rack[8].node[4].app 	throughput
field count 39781
field mean 19891
field stddev 11483.929865976
field sum 791283871
field sqrsum 20985639542791
field min 1
field max 39781
statistic Basic.rack[8].node[4].app 	"End-to-End Delay"
field count 39781
field mean 1.7595302124337e-005
field stddev 1.2953725829029e-005
field sum 0.69995871380826
field sqrsum 1.8991029775337e-005
field min 8.992e-006
field max 8.8450471e-005
statistic Basic.rack[8].node[4].app 	hops
field count 39781
field mean 4.2543928005832
field stddev 1.2992392953411
field sum 169244
field sqrsum 787180
field min 3
field max 6
statistic Basic.rack[8].node[5].app 	throughput
field count 39754
field mean 19877.5
field stddev 11476.135637342
field sum 790210135
field sqrsum 20942939207905
field min 1
field max 39754
statistic Basic.rack[8].node[5].app 	"End-to-End Delay"
field count 39754
field mean 1.7645867868573e-005
field stddev 1.2959916812466e-005
field sum 0.70149383124727
field sqrsum 1.9055359225635e-005
field min 8.992e-006
field max 8.0715916e-005
statistic Basic.rack[8].node[5].app 	hops
field count 39754
field mean 4.2504150525733
field stddev 1.3030493924663
field sum 168971
field sqrsum 785695
field min 3
field max 6
statistic Basic.rack[8].node[6].app 	throughput
field count 39892
field mean 19946.5
field stddev 11515.972805919
field sum 795705778
field sqrsum 21161795165910
field min 1
field max 39892
statistic Basic.rack[8].node[6].app 	"End-to-End Delay"
field count 39892
field mean 1.7419123235392e-005
field stddev 1.2860699657079e-005
field sum 0.69488366410625
field sqrsum 1.8702139668183e-005
field min 8.992e-006
field max 0.000106515063
statistic Basic.rack[8].node[6].app 	hops
field count 39892
field mean 4.242279153715
field stddev 1.2957660285118
field sum 169233
field sqrsum 784911
field min 3
field max 6
statistic Basic.rack[8].node[7].app 	throughput
field count 40047
field mean 20024
field stddev 11560.717451785
field sum 801901128
field sqrsum 21409423615720
field min 1
field max 40047
statistic Basic.rack[8].node[7].app 	"End-to-End Delay"
field count 40047
field mean 1.7459778504039e-005
field stddev 1.2871748434079e-005
field sum 0.69921174975126
field sqrsum 1.8842979955844e-005
field min 8.992e-006
field max 8.9280303e-005
statistic Basic.rack[8].node[7].app 	hops
field count 40047
field mean 4.2427148100981
field stddev 1.2968947816459
field sum 169908
field sqrsum 788226
field min 3
field max 6
statistic Basic.rack[8].node[8].app 	throughput
field count 40030
field mean 20015.5
field stddev 11555.809974496
field sum 801220465
field sqrsum 21382170549455
field min 1
field max 40030
statistic Basic.rack[8].node[8].app 	"End-to-End Delay"
field count 40030
field mean 1.7548741198558e-005
field stddev 1.2931286236352e-005
field sum 0.70247611017826
field sqrsum 1.9021147331495e-005
field min 8.992e-006
field max 8.012832e-005
statistic Basic.rack[8].node[8].app 	hops
field count 40030
field mean 4.2513364976268
field stddev 1.2978006317369
field sum 170181
field sqrsum 790917
field min 3
field max 6
statistic Basic.rack[8].node[9].app 	throughput
field count 40180
field mean 20090.5
field stddev 11599.111244689
field sum 807236290
field sqrsum 21623438500230
field min 1
field max 40180
statistic Basic.rack[8].node[9].app 	"End-to-End Delay"
field count 40180
field mean 1.76094997182e-005
field stddev 1.2988215105406e-005
field sum 0.70754969867727
field sqrsum 1.9237541662402e-005
field min 8.992e-006
field max 9.8463497e-005
statistic Basic.rack[8].node[9].app 	hops
field count 40180
field mean 4.2509706321553
field stddev 1.3008488283775
field sum 170804
field sqrsum 794074
field min 3
field max 6
statistic Basic.rack[8].eps.queue[0] 	dropsum
field count 0
field mean nan
field stddev nan
field sum 0
field sqrsum 0
field min nan
field max nan
statistic Basic.rack[8].eps.queue[1] 	dropsum
field count 0
field mean nan
field stddev nan
field sum 0
field sqrsum 0
field min nan
field max nan
statistic Basic.rack[8].eps.queue[2] 	dropsum
field count 0
field mean nan
field stddev nan
field sum 0
field sqrsum 0
field min nan
field max nan
statistic Basic.rack[8].eps.queue[3] 	dropsum
field count 0
field mean nan
field stddev nan
field sum 0
field sqrsum 0
field min nan
field max nan
statistic Basic.rack[9].node[0].app 	throughput
field count 40114
field mean 20057.5
field stddev 11580.058685804
field sum 804586555
field sqrsum 21517058240365
field min 1
field max 40114
statistic Basic.rack[9].node[0].app 	"End-to-End Delay"
field count 40114
field mean 1.731466499724e-005
field stddev 1.2949276854394e-005
field sum 0.69456047169927
field sqrsum 1.8752380995996e-005
field min 8.992e-006
field max 7.8767879e-005
statistic Basic.rack[9].node[0].app 	hops
field count 40114
field mean 4.2514583437204
field stddev 1.2993053309953
field sum 170543
field sqrsum 792775
field min 3
field max 6
statistic Basic.rack[9].node[1].app 	throughput
field count 40154
field mean 20077.5
field stddev 11591.605691189
field sum 806191935
field sqrsum 21581489369305
field min 1
field max 40154
statistic Basic.rack[9].node[1].app 	"End-to-End Delay"
field count 40154
field mean 1.7194494519432e-005
field stddev 1.2951036706636e-005
field sum 0.69042773293326
field sqrsum 1.8606392531872e-005
field min 8.992e-006
field max 7.6550954e-005
statistic Basic.rack[9].node[1].app 	hops
field count 40154
field mean 4.2350948846939
field stddev 1.2957221271013
field sum 170056
field sqrsum 787616
field min 3
field max 6
statistic Basic.rack[9].node[2].app 	throughput
field count 40014
field mean 20007.5
field stddev 11551.191172342
field sum 800580105
field sqrsum 21356541741015
field min 1
field max 40014
statistic Basic.rack[9].node[2].app 	"End-to-End Delay"
field count 40014
field mean 1.7424413380174e-005
field stddev 1.3075624102317e-005
field sum 0.69722047699427
field sqrsum 1.8989758270167e-005
field min 8.992e-006
field max 8.1855916e-005
statistic Basic.rack[9].node[2].app 	hops
field count 40014
field mean 4.2517368920878
field stddev 1.3019333593723
field sum 170129
field sqrsum 791167
field min 3
field max 6
statistic Basic.rack[9].node[3].app 	throughput
field count 39653
field mean 19827
field stddev 11446.979448745
field sum 786200031
field sqrsum 20783721952839
field min 1
field max 39653
statistic Basic.rack[9].node[3].app 	"End-to-End Delay"
field count 39653
field mean 1.7254602158002e-005
field stddev 1.2925644849006e-005
field sum 0.68419673937126
field sqrsum 1.8430293167582e-005
field min 8.992e-006
field max 9.2614182e-005
statistic Basic.rack[9].node[3].app 	hops
field count 39653
field mean 4.2481275061156
field stddev 1.2966958750442
field sum 168451
field sqrsum 782273
field min 3
field max 6
statistic Basic.rack[9].node[4].app 	throughput
field count 40216
field mean 20108.5
field stddev 11609.503549535
field sum 808683436
field sqrsum 21681611602596
field min 1
field max 40216
statistic Basic.rack[9].node[4].app 	"End-to-End Delay"
field count 40216
field mean 1.7301364410788e-005
field stddev 1.3014990583768e-005
field sum 0.69579167114427
field sqrsum 1.8850163297959e-005
field min 8.992e-006
field max 8.7496821e-005
statistic Basic.rack[9].node[4].app 	hops
field count 40216
field mean 4.2480604734434
field stddev 1.2979325244093
field sum 170840
field sqrsum 793486
field min 3
field max 6
statistic Basic.rack[9].node[5].app 	throughput
field count 40051
field mean 20026
field stddev 11561.872152323
field sum 802061326
field sqrsum 21415839465526
field min 1
field max 40051
statistic Basic.rack[9].node[5].app 	"End-to-End Delay"
field count 40051
field mean 1.7224334452205e-005
field stddev 1.2960311942592e-005
field sum 0.68985181914526
field sqrsum 1.8609424365674e-005
field min 8.992e-006
field max 9.0071543e-005
statistic Basic.rack[9].node[5].app 	hops
field count 40051
field mean 4.2405433072832
field stddev 1.2968087766463
field sum 169838
field sqrsum 787558
field min 3
field max 6
statistic Basic.rack[9].node[6].app 	throughput
field count 39774
field mean 19887.5
field stddev 11481.909140034
field sum 791005425
field sqrsum 20974563517775
field min 1
field max 39774
statistic Basic.rack[9].node[6].app 	"End-to-End Delay"
field count 39774
field mean 1.7454085385736e-005
field stddev 1.3084147485266e-005
field sum 0.69421879213227
field sqrsum 1.8925889445107e-005
field min 8.992e-006
field max 9.5001427e-005
statistic Basic.rack[9].node[6].app 	hops
field count 39774
field mean 4.2634384271132
field stddev 1.3014625024872
field sum 169574
field sqrsum 790336
field min 3
field max 6
statistic Basic.rack[9].node[7].app 	throughput
field count 39858
field mean 19929.5
field stddev 11506.157851342
field sum 794350011
field sqrsum 21107733275629
field min 1
field max 39858
statistic Basic.rack[9].node[7].app 	"End-to-End Delay"
field count 39858
field mean 1.7313633721468e-005
field stddev 1.2979384889256e-005
field sum 0.69008681287025
field sqrsum 1.8662397184397e-005
field min 8.992e-006
field max 8.7903641e-005
statistic Basic.rack[9].node[7].app 	hops
field count 39858
field mean 4.2521200260926
field stddev 1.299064742943
field sum 169481
field sqrsum 787915
field min 3
field max 6
statistic Basic.rack[9].node[8].app 	throughput
field count 39802
field mean 19901.5
field stddev 11489.992043803
field sum 792119503
field sqrsum 21018891012105
field min 1
field max 39802
statistic Basic.rack[9].node[8].app 	"End-to-End Delay"
field count 39802
field mean 1.7320909568672e-005
field stddev 1.3045872663455e-005
field sum 0.68940684265227
field sqrsum 1.871507655573e-005
field min 8.992e-006
field max 0.000100676673
statistic Basic.rack[9].node[8].app 	hops
field count 39802
field mean 4.2437314707804
field stddev 1.2990997399033
field sum 168909
field sqrsum 783975
field min 3
field max 6
statistic Basic.rack[9].node[9].app 	throughput
field count 39872
field mean 19936.5
field stddev 11510.199303227
field sum 794908128
field sqrsum 21129982889120
field min 1
field max 39872
statistic Basic.rack[9].node[9].app 	"End-to-End Delay"
field count 39872
field mean 1.7243778533413e-005
field stddev 1.294946191298e-005
field sum 0.68754393768426
field sqrsum 1.8541766122112e-005
field min 8.992e-006
field max 9.7031001e-005
statistic Basic.rack[9].node[9].app 	hops
field count 39872
field mean 4.2398424959872
field stddev 1.2968842705454
field sum 169051
field sqrsum 783809
field min 3
field max 6
statistic Basic.rack[9].eps.queue[0] 	dropsum
field count 0
field mean nan
field stddev nan
field sum 0
field sqrsum 0
field min nan
field max nan
statistic Basic.rack[9].eps.queue[1] 	dropsum
field count 0
field mean nan
field stddev nan
field sum 0
field sqrsum 0
field min nan
field max nan
statistic Basic.rack[9].eps.queue[2] 	dropsum
field count 0
field mean nan
field stddev nan
field sum 0
field sqrsum 0
field min nan
field max nan
statistic Basic.rack[9].eps.queue[3] 	dropsum
field count 0
field mean nan
field stddev nan
field sum 0
field sqrsum 0
field min nan
field max nan
statistic Basic.rack[10].node[0].app 	throughput
field count 39886
field mean 19943.5
field stddev 11514.240755111
field sum 795466441
field sqrsum 21152248132631
field min 1
field max 39886
statistic Basic.rack[10].node[0].app 	"End-to-End Delay"
field count 39886
field mean 7.8888220329436e-006
field stddev 4.715268658318e-006
field sum 0.31465355560599
field sqrsum 3.3690393607834e-006
field min 8.496e-007
field max 3.9140747e-005
statistic Basic.rack[10].node[0].app 	hops
field count 39886
field mean 4.2498871784586
field stddev 0.82611831342577
field sum 169511
field sqrsum 747623
field min 3
field max 5
statistic Basic.rack[10].node[1].app 	throughput
field count 39944
field mean 19972.5
field stddev 11530.983912919
field sum 797781540
field sqrsum 21244656483020
field min 1
field max 39944
statistic Basic.rack[10].node[1].app 	"End-to-End Delay"
field count 39944
field mean 7.9510721166631e-006
field stddev 4.7432539041692e-006
field sum 0.31759762462799
field sqrsum 3.4238975093916e-006
field min 8.496e-007
field max 4.9398321e-005
statistic Basic.rack[10].node[1].app 	hops
field count 39944
field mean 4.2441417985179
field stddev 0.83069944459754
field sum 169528
field sqrsum 747064
field min 3
field max 5
statistic Basic.rack[10].node[2].app 	throughput
field count 39731
field mean 19866
field stddev 11469.496109246
field sum 789296046
field sqrsum 20906610567766
field min 1
field max 39731
statistic Basic.rack[10].node[2].app 	"End-to-End Delay"
field count 39731
field mean 7.9278067133722e-006
field stddev 4.6944825541132e-006
field sum 0.31497968852899
field sqrsum 3.3726744423892e-006
field min 8.496e-007
field max 6.9842764e-005
statistic Basic.rack[10].node[2].app 	hops
field count 39731
field mean 4.244745916287
field stddev 0.83085009050529
field sum 168648
field sqrsum 743294
field min 3
field max 5
statistic Basic.rack[10].node[3].app 	throughput
field count 40353
field mean 20177
field stddev 11649.052042978
field sum 814202481
field sqrsum 21903946544689
field min 1
field max 40353
statistic Basic.rack[10].node[3].app 	"End-to-End Delay"
field count 40353
field mean 7.9102126850541e-006
field stddev 4.7187216117251e-006
field sum 0.31920081247999
field sqrsum 3.4234374113617e-006
field min 8.496e-007
field max 3.8927621e-005
statistic Basic.rack[10].node[3].app 	hops
field count 40353
field mean 4.2529427799668
field stddev 0.82651006042163
field sum 171619
field sqrsum 757451
field min 3
field max 5
statistic Basic.rack[10].node[4].app 	throughput
field count 39998
field mean 19999.5
field stddev 11546.572370188
field sum 799940001
field sqrsum 21330933419999
field min 1
field max 39998
statistic Basic.rack[10].node[4].app 	"End-to-End Delay"
field count 39998
field mean 7.9310153980446e-006
field stddev 4.6781863738459e-006
field sum 0.31722475389099
field sqrsum 3.3912658614046e-006
field min 8.496e-007
field max 4.0635336e-005
statistic Basic.rack[10].node[4].app 	hops
field count 39998
field mean 4.2545127256363
field stddev 0.82778493790255
field sum 170172
field sqrsum 751406
field min 3
field max 5
statistic Basic.rack[10].node[5].app 	throughput
field count 40040
field mean 20020.5
field stddev 11558.696725842
field sum 801620820
field sqrsum 21398198962140
field min 1
field max 40040
statistic Basic.rack[10].node[5].app 	"End-to-End Delay"
field count 40040
field mean 7.9478751498748e-006
field stddev 4.7239096008245e-006
field sum 0.31823292100099
field sqrsum 3.4227586989211e-006
field min 8.496e-007
field max 4.9443912e-005
statistic Basic.rack[10].node[5].app 	hops
field count 40040
field mean 4.2492757242757
field stddev 0.82942975593059
field sum 170141
field sqrsum 750521
field min 3
field max 5
statistic Basic.rack[10].node[6].app 	throughput
field count 40001
field mean 20001
field stddev 11547.438395592
field sum 800060001
field sqrsum 21335733420001
field min 1
field max 40001
statistic Basic.rack[10].node[6].app 	"End-to-End Delay"
field count 40001
field mean 7.9532534824126e-006
field stddev 4.6787536999497e-006
field sum 0.31813809254999
field sqrsum 3.405862339853e-006
field min 8.496e-007
field max 5.6438551e-005
statistic Basic.rack[10].node[6].app 	hops
field count 40001
field mean 4.2557186070348
field stddev 0.82944641732665
field sum 170233
field sqrsum 751983
field min 3
field max 5
statistic Basic.rack[10].node[7].app 	throughput
field count 40125
field mean 20063
field stddev 11583.234112285
field sum 805027875
field sqrsum 21534763998875
field min 1
field max 40125
statistic Basic.rack[10].node[7].app 	"End-to-End Delay"
field count 40125
field mean 7.9677805405355e-006
field stddev 4.7026869529693e-006
field sum 0.31970719418899
field sqrsum 3.4347096364409e-006
field min 8.496e-007
field max 6.1364839e-005
statistic Basic.rack[10].node[7].app 	hops
field count 40125
field mean 4.2531090342679
field stddev 0.83030023540197
field sum 170656
field sqrsum 753480
field min 3
field max 5
statistic Basic.rack[10].node[8].app 	throughput
field count 40259
field mean 20130
field stddev 11621.916580324
field sum 810413670
field sqrsum 21751232764910
field min 1
field max 40259
statistic Basic.rack[10].node[8].app 	"End-to-End Delay"
field count 40259
field mean 7.9330606262945e-006
field stddev 4.681982813827e-006
field sum 0.31937708775399
field sqrsum 3.4161319310324e-006
field min 8.496e-007
field max 4.0099757e-005
statistic Basic.rack[10].node[8].app 	hops
field count 40259
field mean 4.2476713281502
field stddev 0.83050461774199
field sum 171007
field sqrsum 754149
field min 3
field max 5
statistic Basic.rack[10].node[9].app 	throughput
field count 40063
field mean 20032
field stddev 11565.336253939
field sum 802542016
field sqrsum 21435094705344
field min 1
field max 40063
statistic Basic.rack[10].node[9].app 	"End-to-End Delay"
field count 40063
field mean 7.9346346119109e-006
field stddev 4.6843926788713e-006
field sum 0.31788526645699
field sqrsum 3.4014053277964e-006
field min 8.496e-007
field max 4.1093989e-005
statistic Basic.rack[10].node[9].app 	hops
field count 40063
field mean 4.248084267279
field stddev 0.83027931919242
field sum 170191
field sqrsum 750603
field min 3
field max 5
statistic Basic.rack[10].eps.queue[0] 	dropsum
field count 0
field mean nan
field stddev nan
field sum 0
field sqrsum 0
field min nan
field max nan
statistic Basic.rack[10].eps.queue[1] 	dropsum
field count 0
field mean nan
field stddev nan
field sum 0
field sqrsum 0
field min nan
field max nan
statistic Basic.rack[10].eps.queue[2] 	dropsum
field count 0
field mean nan
field stddev nan
field sum 0
field sqrsum 0
field min nan
field max nan
statistic Basic.rack[10].eps.queue[3] 	dropsum
field count 0
field mean nan
field stddev nan
field sum 0
field sqrsum 0
field min nan
field max nan
statistic Basic.rack[11].node[0].app 	throughput
field count 39719
field mean 19860
field stddev 11466.03200763
field sum 788819340
field sqrsum 20887673183420
field min 1
field max 39719
statistic Basic.rack[11].node[0].app 	"End-to-End Delay"
field count 39719
field mean 7.9530291695407e-006
field stddev 4.7157116773942e-006
field sum 0.31588636558499
field sqrsum 3.3954998466021e-006
field min 8.496e-007
field max 5.7807653e-005
statistic Basic.rack[11].node[0].app 	hops
field count 39719
field mean 4.2543618922934
field stddev 0.82850395145523
field sum 168979
field sqrsum 746161
field min 3
field max 5
statistic Basic.rack[11].node[1].app 	throughput
field count 39830
field mean 19915.5
field stddev 11498.074947573
field sum 793234365
field sqrsum 21063280916755
field min 1
field max 39830
statistic Basic.rack[11].node[1].app 	"End-to-End Delay"
field count 39830
field mean 7.9488092790105e-006
field stddev 4.7080841547768e-006
field sum 0.31660107358299
field sqrsum 3.3994534121337e-006
field min 8.496e-007
field max 4.5914867e-005
statistic Basic.rack[11].node[1].app 	hops
field count 39830
field mean 4.2478784835551
field stddev 0.83020412523025
field sum 169193
field sqrsum 746163
field min 3
field max 5
statistic Basic.rack[11].node[2].app 	throughput
field count 40128
field mean 20064.5
field stddev 11584.100137689
field sum 805148256
field sqrsum 21539594527264
field min 1
field max 40128
statistic Basic.rack[11].node[2].app 	"End-to-End Delay"
field count 40128
field mean 7.9362168482353e-006
field stddev 4.7016161337127e-006
field sum 0.31846450968599
field sqrsum 3.4144185377586e-006
field min 8.496e-007
field max 4.6342585e-005
statistic Basic.rack[11].node[2].app 	hops
field count 40128
field mean 4.2559061004785
field stddev 0.82746817008991
field sum 170781
field sqrsum 754303
field min 3
field max 5
statistic Basic.rack[11].node[3].app 	throughput
field count 40204
field mean 20102.5
field stddev 11606.03944792
field sum 808200910
field sqrsum 21662208990730
field min 1
field max 40204
statistic Basic.rack[11].node[3].app 	"End-to-End Delay"
field count 40204
field mean 7.94878927348e-006
field stddev 4.6906969893523e-006
field sum 0.31957312395099
field sqrsum 3.4247914851548e-006
field min 8.496e-007
field max 4.9715775e-005
statistic Basic.rack[11].node[3].app 	hops
field count 40204
field mean 4.2490299472689
[...]
field max 7.9697188e-005
statistic Basic.rack[13].node[1].app 	hops
field count 39930
field mean 4.2546456298522
field stddev 1.300392495569
field sum 169888
field sqrsum 790334
field min 3
field max 6
statistic Basic.rack[13].node[2].app 	throughput
field count 39953
field mean 19977
field stddev 11533.581989131
field sum 798141081
field sqrsum 21259019786489
field min 1
field max 39953
statistic Basic.rack[13].node[2].app 	"End-to-End Delay"
field count 39953
field mean 1.7649956532182e-005
field stddev 1.3047551731618e-005
field sum 0.70516871333027
field sqrsum 1.9247569932607e-005
field min 8.992e-006
field max 8.4981315e-005
statistic Basic.rack[13].node[2].app 	hops
field count 39953
field mean 4.2679898881185
field stddev 1.2991598000713
field sum 170519
field sqrsum 795205
field min 3
field max 6
statistic Basic.rack[13].node[3].app 	throughput
field count 40082
field mean 20041.5
field stddev 11570.821081496
field sum 803303403
field sqrsum 21465605767165
field min 1
field max 40082
statistic Basic.rack[13].node[3].app 	"End-to-End Delay"
field count 40082
field mean 1.7564773717361e-005
field stddev 1.2942934985104e-005
field sum 0.70403126013927
field sqrsum 1.9080501500288e-005
field min 8.992e-006
field max 8.6612221e-005
statistic Basic.rack[13].node[3].app 	hops
field count 40082
field mean 4.2535552118158
field stddev 1.2988981900553
field sum 170491
field sqrsum 792815
field min 3
field max 6
statistic Basic.rack[13].node[4].app 	throughput
field count 39781
field mean 19891
field stddev 11483.929865976
field sum 791283871
field sqrsum 20985639542791
field min 1
field max 39781
statistic Basic.rack[13].node[4].app 	"End-to-End Delay"
field count 39781
field mean 1.7562209931129e-005
field stddev 1.3006226633683e-005
field sum 0.69864227327025
field sqrsum 1.8998963894928e-005
field min 8.992e-006
field max 9.9081321e-005
statistic Basic.rack[13].node[4].app 	hops
field count 39781
field mean 4.248636283653
field stddev 1.298989615074
field sum 169015
field sqrsum 785207
field min 3
field max 6
statistic Basic.rack[13].node[5].app 	throughput
field count 40186
field mean 20093.5
field stddev 11600.843295497
field sum 807477391
field sqrsum 21633126782281
field min 1
field max 40186
statistic Basic.rack[13].node[5].app 	"End-to-End Delay"
field count 40186
field mean 1.7605261013544e-005
field stddev 1.2974617239907e-005
field sum 0.70748501909027
field sqrsum 1.9220229153256e-005
field min 8.992e-006
field max 8.8594637e-005
statistic Basic.rack[13].node[5].app 	hops
field count 40186
field mean 4.2563330513114
field stddev 1.3001900995037
field sum 171045
field sqrsum 795957
field min 3
field max 6
statistic Basic.rack[13].node[6].app 	throughput
field count 40131
field mean 20066
field stddev 11584.966163093
field sum 805268646
field sqrsum 21544425777966
field min 1
field max 40131
statistic Basic.rack[13].node[6].app 	"End-to-End Delay"
field count 40131
field mean 1.7513054572357e-005
field stddev 1.2869415696927e-005
field sum 0.70281639304326
field sqrsum 1.8954867102776e-005
field min 8.992e-006
field max 7.8412689e-005
statistic Basic.rack[13].node[6].app 	hops
field count 40131
field mean 4.247838329471
field stddev 1.2983821324445
field sum 170470
field sqrsum 791780
field min 3
field max 6
statistic Basic.rack[13].node[7].app 	throughput
field count 39984
field mean 19992.5
field stddev 11542.530918304
field sum 799380120
field sqrsum 21308542938760
field min 1
field max 39984
statistic Basic.rack[13].node[7].app 	"End-to-End Delay"
field count 39984
field mean 1.7649731491928e-005
field stddev 1.3067312117566e-005
field sum 0.70570686397326
field sqrsum 1.9282819671273e-005
field min 8.992e-006
field max 9.7732293e-005
statistic Basic.rack[13].node[7].app 	hops
field count 39984
field mean 4.2617296918768
field stddev 1.2987943978129
field sum 170401
field sqrsum 793649
field min 3
field max 6
statistic Basic.rack[13].node[8].app 	throughput
field count 39825
field mean 19913
field stddev 11496.6315719
field sum 793035225
field sqrsum 21055349568825
field min 1
field max 39825
statistic Basic.rack[13].node[8].app 	"End-to-End Delay"
field count 39825
field mean 1.751836544661e-005
field stddev 1.2930774932918e-005
field sum 0.69766890391125
field sqrsum 1.8880788364581e-005
field min 8.992e-006
field max 8.9614394e-005
statistic Basic.rack[13].node[8].app 	hops
field count 39825
field mean 4.2471311989956
field stddev 1.2984651787774
field sum 169142
field sqrsum 785512
field min 3
field max 6
statistic Basic.rack[13].node[9].app 	throughput
field count 39812
field mean 19906.5
field stddev 11492.87879515
field sum 792517578
field sqrsum 21034737382750
field min 1
field max 39812
statistic Basic.rack[13].node[9].app 	"End-to-End Delay"
field count 39812
field mean 1.7594835546525e-005
field stddev 1.2993884798888e-005
field sum 0.70048559277826
field sqrsum 1.9046659537345e-005
field min 8.992e-006
field max 9.5884087e-005
statistic Basic.rack[13].node[9].app 	hops
field count 39812
field mean 4.2511554305235
field stddev 1.3002811718334
field sum 169247
field sqrsum 786805
field min 3
field max 6
statistic Basic.rack[13].eps.queue[0] 	dropsum
field count 0
field mean nan
field stddev nan
field sum 0
field sqrsum 0
field min nan
field max nan
statistic Basic.rack[13].eps.queue[1] 	dropsum
field count 0
field mean nan
field stddev nan
field sum 0
field sqrsum 0
field min nan
field max nan
statistic Basic.rack[13].eps.queue[2] 	dropsum
field count 0
field mean nan
field stddev nan
field sum 0
field sqrsum 0
field min nan
field max nan
statistic Basic.rack[13].eps.queue[3] 	dropsum
field count 0
field mean nan
field stddev nan
field sum 0
field sqrsum 0
field min nan
field max nan
statistic Basic.rack[14].node[0].app 	throughput
field count 39990
field mean 19995.5
field stddev 11544.262969112
field sum 799620045
field sqrsum 21318136939715
field min 1
field max 39990
statistic Basic.rack[14].node[0].app 	"End-to-End Delay"
field count 39990
field mean 8.1755738283817e-006
field stddev 4.9882309131626e-006
field sum 0.32694119739698
field sqrsum 3.6679560956557e-006
field min 8.496e-007
field max 4.0722615e-005
statistic Basic.rack[14].node[0].app 	hops
field count 39990
field mean 4.2474618654664
field stddev 0.82889497397139
field sum 169856
field sqrsum 748932
field min 3
field max 5
statistic Basic.rack[14].node[1].app 	throughput
field count 39911
field mean 19956
field stddev 11521.457633477
field sum 796463916
field sqrsum 21192046388956
field min 1
field max 39911
statistic Basic.rack[14].node[1].app 	"End-to-End Delay"
field count 39911
field mean 8.1923913420106e-006
field stddev 4.951093307159e-006
field sum 0.32696653085099
field sqrsum 3.6569645746744e-006
field min 8.496e-007
field max 4.4688949e-005
statistic Basic.rack[14].node[1].app 	hops
field count 39911
field mean 4.2566710931823
field stddev 0.82831774167202
field sum 169888
field sqrsum 750540
field min 3
field max 5
statistic Basic.rack[14].node[2].app 	throughput
field count 39972
field mean 19986.5
field stddev 11539.066816688
field sum 798900378
field sqrsum 21289363573070
field min 1
field max 39972
statistic Basic.rack[14].node[2].app 	"End-to-End Delay"
field count 39972
field mean 8.1901619925194e-006
field stddev 4.9653985608703e-006
field sum 0.32737715516498
field sqrsum 3.6667642478799e-006
field min 8.496e-007
field max 4.97763e-005
statistic Basic.rack[14].node[2].app 	hops
field count 39972
field mean 4.257255078555
field stddev 0.8274887222373
field sum 170171
field sqrsum 751831
field min 3
field max 5
statistic Basic.rack[14].node[3].app 	throughput
field count 39990
field mean 19995.5
field stddev 11544.262969112
field sum 799620045
field sqrsum 21318136939715
field min 1
field max 39990
statistic Basic.rack[14].node[3].app 	"End-to-End Delay"
field count 39990
field mean 8.1925016053511e-006
field stddev 4.9792794545966e-006
field sum 0.32761813919799
field sqrsum 3.6754683613376e-006
field min 8.496e-007
field max 4.3231878e-005
statistic Basic.rack[14].node[3].app 	hops
field count 39990
field mean 4.2440860215054
field stddev 0.83183663988544
field sum 169721
field sqrsum 747981
field min 3
field max 5
statistic Basic.rack[14].node[4].app 	throughput
field count 40031
field mean 20016
field stddev 11556.098649631
field sum 801260496
field sqrsum 21383773030416
field min 1
field max 40031
statistic Basic.rack[14].node[4].app 	"End-to-End Delay"
field count 40031
field mean 8.1727182845041e-006
field stddev 4.9679762127755e-006
field sum 0.32716208564698
field sqrsum 3.6617754890213e-006
field min 8.496e-007
field max 4.7167041e-005
statistic Basic.rack[14].node[4].app 	hops
field count 40031
field mean 4.25008118708
field stddev 0.82865609736957
field sum 170135
field sqrsum 750575
field min 3
field max 5
statistic Basic.rack[14].node[5].app 	throughput
field count 40119
field mean 20060
field stddev 11581.502061477
field sum 804787140
field sqrsum 21525105108820
field min 1
field max 40119
statistic Basic.rack[14].node[5].app 	"End-to-End Delay"
field count 40119
field mean 8.1883666175624e-006
field stddev 4.9303180421632e-006
field sum 0.32850908032999
field sqrsum 3.665142575063e-006
field min 8.496e-007
field max 5.117487e-005
statistic Basic.rack[14].node[5].app 	hops
field count 40119
field mean 4.2518008923453
field stddev 0.83016541695655
field sum 170578
field sqrsum 752912
field min 3
field max 5
statistic Basic.rack[14].node[6].app 	throughput
field count 39933
field mean 19967
field stddev 11527.808486438
field sum 797342211
field sqrsum 21227110121979
field min 1
field max 39933
statistic Basic.rack[14].node[6].app 	"End-to-End Delay"
field count 39933
field mean 8.1540803909546e-006
field stddev 4.9494326416889e-006
field sum 0.32561689225199
field sqrsum 3.6333158669839e-006
field min 8.496e-007
field max 4.5967505e-005
statistic Basic.rack[14].node[6].app 	hops
field count 39933
field mean 4.2531740665615
field stddev 0.82757147207776
field sum 169842
field sqrsum 749716
field min 3
field max 5
statistic Basic.rack[14].node[7].app 	throughput
field count 39722
field mean 19861.5
field stddev 11466.898033034
field sum 788938503
field sqrsum 20892406456945
field min 1
field max 39722
statistic Basic.rack[14].node[7].app 	"End-to-End Delay"
field count 39722
field mean 8.1433226477515e-006
field stddev 4.9560796125176e-006
field sum 0.32346906221398
field sqrsum 3.6097689448885e-006
field min 8.496e-007
field max 4.9736622e-005
statistic Basic.rack[14].node[7].app 	hops
field count 39722
field mean 4.2478475404058
field stddev 0.82913727314978
field sum 168733
field sqrsum 744059
field min 3
field max 5
statistic Basic.rack[14].node[8].app 	throughput
field count 39916
field mean 19958.5
field stddev 11522.90100915
field sum 796663486
field sqrsum 21200012025946
field min 1
field max 39916
statistic Basic.rack[14].node[8].app 	"End-to-End Delay"
field count 39916
field mean 8.1906361629167e-006
field stddev 4.9314534490162e-006
field sum 0.32693743307898
field sqrsum 3.6485277523653e-006
field min 8.496e-007
field max 3.966403e-005
statistic Basic.rack[14].node[8].app 	hops
field count 39916
field mean 4.2399288505862
field stddev 0.83391113223976
field sum 169241
field sqrsum 745327
field min 3
field max 5
statistic Basic.rack[14].node[9].app 	throughput
field count 39453
field mean 19727
field stddev 11389.244421822
field sum 778289331
field sqrsum 20470825413739
field min 1
field max 39453
statistic Basic.rack[14].node[9].app 	"End-to-End Delay"
field count 39453
field mean 8.2011291436388e-006
field stddev 4.9768543420101e-006
field sum 0.32355914810398
field sqrsum 3.6307400695003e-006
field min 8.496e-007
field max 3.8633781e-005
statistic Basic.rack[14].node[9].app 	hops
field count 39453
field mean 4.25389704205
field stddev 0.82858225201673
field sum 167829
field sqrsum 741013
field min 3
field max 5
statistic Basic.rack[14].eps.queue[0] 	dropsum
field count 0
field mean nan
field stddev nan
field sum 0
field sqrsum 0
field min nan
field max nan
statistic Basic.rack[14].eps.queue[1] 	dropsum
field count 0
field mean nan
field stddev nan
field sum 0
field sqrsum 0
field min nan
field max nan
statistic Basic.rack[14].eps.queue[2] 	dropsum
field count 0
field mean nan
field stddev nan
field sum 0
field sqrsum 0
field min nan
field max nan
statistic Basic.rack[14].eps.queue[3] 	dropsum
field count 0
field mean nan
field stddev nan
field sum 0
field sqrsum 0
field min nan
field max nan
statistic Basic.rack[15].node[0].app 	throughput
field count 40099
field mean 20050
field stddev 11575.728558785
field sum 803984950
field sqrsum 21492929668350
field min 1
field max 40099
statistic Basic.rack[15].node[0].app 	"End-to-End Delay"
field count 40099
field mean 8.1821610470582e-006
field stddev 4.958000098544e-006
field sum 0.32809647582599
field sqrsum 3.6702178162347e-006
field min 8.496e-007
field max 4.2971143e-005
statistic Basic.rack[15].node[0].app 	hops
field count 40099
field mean 4.251103518791
field stddev 0.82929549963769
field sum 170465
field sqrsum 752241
field min 3
field max 5
statistic Basic.rack[15].node[1].app 	throughput
field count 39833
field mean 19917
field stddev 11498.940972977
field sum 793353861
field sqrsum 21068040681429
field min 1
field max 39833
statistic Basic.rack[15].node[1].app 	"End-to-End Delay"
field count 39833
field mean 8.160512919137e-006
field stddev 4.9738184968364e-006
field sum 0.32505771110799
field sqrsum 3.6380363383069e-006
field min 8.496e-007
field max 4.2484905e-005
statistic Basic.rack[15].node[1].app 	hops
field count 39833
field mean 4.2490397409183
field stddev 0.82826289657378
field sum 169252
field sqrsum 746484
field min 3
field max 5
statistic Basic.rack[15].node[2].app 	throughput
field count 40081
field mean 20041
field stddev 11570.532406362
field sum 803263321
field sqrsum 21463999200441
field min 1
field max 40081
statistic Basic.rack[15].node[2].app 	"End-to-End Delay"
field count 40081
field mean 8.1298749628249e-006
field stddev 4.9595385450434e-006
field sum 0.32585351838499
field sqrsum 3.6349970256637e-006
field min 8.496e-007
field max 4.2209325e-005
statistic Basic.rack[15].node[2].app 	hops
field count 40081
field mean 4.2429330605524
field stddev 0.82976622957526
field sum 170061
field sqrsum 749153
field min 3
field max 5
statistic Basic.rack[15].node[3].app 	throughput
field count 40047
field mean 20024
field stddev 11560.717451785
field sum 801901128
field sqrsum 21409423615720
field min 1
field max 40047
statistic Basic.rack[15].node[3].app 	"End-to-End Delay"
field count 40047
field mean 8.1774585439105e-006
field stddev 4.9619031457189e-006
field sum 0.32748268230798
field sqrsum 3.663927913732e-006
field min 8.496e-007
field max 4.7893675e-005
statistic Basic.rack[15].node[3].app 	hops
field count 40047
field mean 4.253377281694
field stddev 0.8278052110121
field sum 170335
field sqrsum 751941
field min 3
field max 5
statistic Basic.rack[15].node[4].app 	throughput
field count 39953
field mean 19977
field stddev 11533.581989131
field sum 798141081
field sqrsum 21259019786489
field min 1
field max 39953
statistic Basic.rack[15].node[4].app 	"End-to-End Delay"
field count 39953
field mean 8.1841793820486e-006
field stddev 4.9441397143434e-006
field sum 0.32698251885099
field sqrsum 3.6526909528278e-006
field min 8.496e-007
field max 3.9175458e-005
statistic Basic.rack[15].node[4].app 	hops
field count 39953
field mean 4.2425600080094
field stddev 0.8321897751389
field sum 169503
field sqrsum 746795
field min 3
field max 5
statistic Basic.rack[15].node[5].app 	throughput
field count 40430
field mean 20215.5
field stddev 11671.280028343
field sum 817312665
field sqrsum 22029573134855
field min 1
field max 40430
statistic Basic.rack[15].node[5].app 	"End-to-End Delay"
field count 40430
field mean 8.1720925548846e-006
field stddev 4.9386323254126e-006
field sum 0.33039770199399
field sqrsum 3.6861075187268e-006
field min 8.496e-007
field max 4.0707166e-005
statistic Basic.rack[15].node[5].app 	hops
field count 40430
field mean 4.2460796438288
field stddev 0.83111998828335
field sum 171669
field sqrsum 756847
field min 3
field max 5
statistic Basic.rack[15].node[6].app 	throughput
field count 40193
field mean 20097
field stddev 11602.864021439
field sum 807758721
field sqrsum 21644433435009
field min 1
field max 40193
statistic Basic.rack[15].node[6].app 	"End-to-End Delay"
field count 40193
field mean 8.1657992384242e-006
field stddev 4.9350244884959e-006
field sum 0.32820796878998
field sqrsum 3.658935107279e-006
field min 8.496e-007
field max 4.3334584e-005
statistic Basic.rack[15].node[6].app 	hops
field count 40193
field mean 4.2498942601946
field stddev 0.829936945595
field sum 170816
field sqrsum 753634
field min 3
field max 5
statistic Basic.rack[15].node[7].app 	throughput
field count 40155
field mean 20078
field stddev 11591.894366323
field sum 806232090
field sqrsum 21583101793330
field min 1
field max 40155
statistic Basic.rack[15].node[7].app 	"End-to-End Delay"
field count 40155
field mean 8.161663546507e-006
field stddev 4.9826803179127e-006
field sum 0.32773159970999
field sqrsum 3.6717425502972e-006
field min 8.496e-007
field max 4.8042827e-005
statistic Basic.rack[15].node[7].app 	hops
field count 40155
field mean 4.24988170838
field stddev 0.82802627225759
field sum 170654
field sqrsum 752790
field min 3
field max 5
statistic Basic.rack[15].node[8].app 	throughput
field count 40092
field mean 20046.5
field stddev 11573.707832843
field sum 803704278
field sqrsum 21481675843810
field min 1
field max 40092
statistic Basic.rack[15].node[8].app 	"End-to-End Delay"
field count 40092
field mean 8.152569341564e-006
field stddev 4.9121751209944e-006
field sum 0.32685281004198
field sqrsum 3.6320645563871e-006
field min 8.496e-007
field max 4.5948585e-005
statistic Basic.rack[15].node[8].app 	hops
field count 40092
field mean 4.2486281552429
field stddev 0.83019508513834
field sum 170336
field sqrsum 751326
field min 3
field max 5
statistic Basic.rack[15].node[9].app 	throughput
field count 39745
field mean 19873
field stddev 11473.53756113
field sum 789852385
field sqrsum 20928718645345
field min 1
field max 39745
statistic Basic.rack[15].node[9].app 	"End-to-End Delay"
field count 39745
field mean 8.1953280077491e-006
field stddev 4.9572310094602e-006
field sum 0.32572331166799
field sqrsum 3.6460839704796e-006
field min 8.496e-007
field max 4.4583081e-005
statistic Basic.rack[15].node[9].app 	hops
field count 39745
field mean 4.2449867907913
field stddev 0.83166444631215
field sum 168717
field sqrsum 743691
field min 3
field max 5
statistic Basic.rack[15].eps.queue[0] 	dropsum
field count 0
field mean nan
field stddev nan
field sum 0
field sqrsum 0
field min nan
field max nan
statistic Basic.rack[15].eps.queue[1] 	dropsum
field count 0
field mean nan
field stddev nan
field sum 0
field sqrsum 0
field min nan
field max nan
statistic Basic.rack[15].eps.queue[2] 	dropsum
field count 0
field mean nan
field stddev nan
field sum 0
field sqrsum 0
field min nan
field max nan
statistic Basic.rack[15].eps.queue[3] 	dropsum
field count 0
field mean nan
field stddev nan
field sum 0
field sqrsum 0
field min nan
field max nan
