version 2
run Basic-48-20180510-17:49:27-22644
attr configname Basic
attr datetime 20180510-17:49:27
attr experiment Basic
attr inifile omnetpp.ini
attr iterationvars "$0=exponential(0.08 ms), $1=4, $2=2"
attr iterationvarsf exponential(0.08_ms),4,2-
attr measurement "$0=exponential(0.08 ms), $1=4, $2=2"
attr network Networks.Basic
attr processid 22644
attr repetition 0
attr replication #0
attr resultdir results
attr runnumber 48
attr seedset 48
param **.frameCapacity 50
param **.packetLength "1024 bytes"
param **.pattern 4
param **.sendIaTime "exponential(0.08 ms)"
param **.tp 2

statistic Basic.rack[0].node[0].app 	throughput
field count 40425
field mean 20213
field stddev 11669.83665267
field sum 817110525
field sqrsum 22021401018925
field min 1
field max 40425
statistic Basic.rack[0].node[0].app 	"End-to-End Delay"
field count 40425
field mean 0.0007996168409451
field stddev 0.00032184962800826
field sum 32.324510795206
field sqrsum 0.030034631494733
field min 8.9014893e-005
field max 0.001261002668
statistic Basic.rack[0].node[0].app 	hops
field count 40425
field mean 5.3063945578231
field stddev 0.76123742131285
field sum 214511
field sqrsum 1161705
field min 4
field max 6
statistic Basic.rack[0].node[1].app 	throughput
field count 40632
field mean 20316.5
field stddev 11729.592405536
field sum 825500028
field sqrsum 22361419925140
field min 1
field max 40632
statistic Basic.rack[0].node[1].app 	"End-to-End Delay"
field count 40632
field mean 0.00079870473651004
field stddev 0.00032166993455043
field sum 32.452970853876
field sqrsum 0.030124493952587
field min 0.000424771673
field max 0.00125994934
statistic Basic.rack[0].node[1].app 	hops
field count 40632
field mean 5.3107156920654
field stddev 0.75918589933078
field sum 215785
field sqrsum 1169391
field min 4
field max 6
statistic Basic.rack[0].node[2].app 	throughput
field count 40522
field mean 20261.5
field stddev 11697.838140728
field sum 821036503
field sqrsum 22180301128545
field min 1
field max 40522
statistic Basic.rack[0].node[2].app 	"End-to-End Delay"
field count 40522
field mean 0.0007985379735822
field stddev 0.00032104874704512
field sum 32.358355765498
field sqrsum 0.030015968427849
field min 0.000382139182
field max 0.001260061173
statistic Basic.rack[0].node[2].app 	hops
field count 40522
field mean 5.3075119688071
field stddev 0.75873520642217
field sum 215071
field sqrsum 1164819
field min 4
field max 6
statistic Basic.rack[0].node[3].app 	throughput
field count 40578
field mean 20289.5
field stddev 11714.003948266
field sum 823307331
field sqrsum 22272384353989
field min 1
field max 40578
statistic Basic.rack[0].node[3].app 	"End-to-End Delay"
field count 40578
field mean 0.00080075040486135
field stddev 0.00032136108418722
field sum 32.492849928464
field sqrsum 0.030209169082606
field min 0.000424771594
field max 0.00126039307
statistic Basic.rack[0].node[3].app 	hops
field count 40578
field mean 5.3059046774114
field stddev 0.7602679623683
field sum 215303
field sqrsum 1165831
field min 4
field max 6
statistic Basic.rack[0].node[4].app 	throughput
field count 40494
field mean 20247.5
field stddev 11689.755236959
field sum 819902265
field sqrsum 22134354846695
field min 1
field max 40494
statistic Basic.rack[0].node[4].app 	"End-to-End Delay"
field count 40494
field mean 0.00080357098560073
field stddev 0.00032233768387906
field sum 32.539803490916
field sqrsum 0.030355328740537
field min 0.000251330093
field max 0.00126014449
statistic Basic.rack[0].node[4].app 	hops
field count 40494
field mean 5.3093544722675
field stddev 0.76056778286367
field sum 214997
field sqrsum 1164919
field min 4
field max 6
statistic Basic.rack[0].node[5].app 	throughput
field count 40617
field mean 20309
field stddev 11725.262278516
field sum 824890653
field sqrsum 22336664065485
field min 1
field max 40617
statistic Basic.rack[0].node[5].app 	"End-to-End Delay"
field count 40617
field mean 0.00080149481579214
field stddev 0.00032077678680734
field sum 32.554314933029
field sqrsum 0.030271409540789
field min 0.000121191478
field max 0.001261009069
statistic Basic.rack[0].node[5].app 	hops
field count 40617
field mean 5.305512470148
field stddev 0.75867213567056
field sum 215494
field sqrsum 1166684
field min 4
field max 6
statistic Basic.rack[0].node[6].app 	throughput
field count 40385
field mean 20193
field stddev 11658.289647285
field sum 815494305
field sqrsum 21956096836385
field min 1
field max 40385
statistic Basic.rack[0].node[6].app 	"End-to-End Delay"
field count 40385
field mean 0.00080283514840766
field stddev 0.00032146883433786
field sum 32.422497468443
field sqrsum 0.030203292434044
field min 0.000153470428
field max 0.001260441511
statistic Basic.rack[0].node[6].app 	hops
field count 40385
field mean 5.306425653089
field stddev 0.75900860376802
field sum 214300
field sqrsum 1160432
field min 4
field max 6
statistic Basic.rack[0].node[7].app 	throughput
field count 40396
field mean 20198.5
field stddev 11661.465073766
field sum 815938606
field sqrsum 21974042598186
field min 1
field max 40396
statistic Basic.rack[0].node[7].app 	"End-to-End Delay"
field count 40396
field mean 0.00079747277637454
field stddev 0.00032170205622139
field sum 32.214710274426
field sqrsum 0.029870922385857
field min 3.9906716e-005
field max 0.001259334849
statistic Basic.rack[0].node[7].app 	hops
field count 40396
field mean 5.3065154965838
field stddev 0.76114852404792
field sum 214362
field sqrsum 1160918
field min 4
field max 6
statistic Basic.rack[0].node[8].app 	throughput
field count 40671
field mean 20336
field stddev 11740.850735786
field sum 827085456
field sqrsum 22425870749136
field min 1
field max 40671
statistic Basic.rack[0].node[8].app 	"End-to-End Delay"
field count 40671
field mean 0.00079885045845799
field stddev 0.00032130968432886
field sum 32.490046995945
field sqrsum 0.030153456209646
field min 7.7529775e-005
field max 0.001260297769
statistic Basic.rack[0].node[8].app 	hops
field count 40671
field mean 5.3043200314721
field stddev 0.7606700385582
field sum 215732
field sqrsum 1167844
field min 4
field max 6
statistic Basic.rack[0].node[9].app 	throughput
field count 40149
field mean 20075
field stddev 11590.162315516
field sum 805991175
field sqrsum 21573428453775
field min 1
field max 40149
statistic Basic.rack[0].node[9].app 	"End-to-End Delay"
field count 40149
field mean 0.0008007775184231
field stddev 0.00032197759404395
field sum 32.150416587169
field sqrsum 0.029907456750113
field min 0.000139651967
field max 0.001259304618
statistic Basic.rack[0].node[9].app 	hops
field count 40149
field mean 5.3091733293482
field stddev 0.76029075428754
field sum 213158
field sqrsum 1154900
field min 4
field max 6
statistic Basic.rack[0].eps.queue[0] 	dropsum
field count 0
field mean nan
field stddev nan
field sum 0
field sqrsum 0
field min nan
field max nan
statistic Basic.rack[0].eps.queue[1] 	dropsum
field count 235669
field mean 117835
field stddev 68031.924632239
field sum 27770056615
field sqrsum 4.3630369049525e+015
field min 1
field max 235669
statistic Basic.rack[0].eps.queue[2] 	dropsum
field count 0
field mean nan
field stddev nan
field sum 0
field sqrsum 0
field min nan
field max nan
statistic Basic.rack[0].eps.queue[3] 	dropsum
field count 0
field mean nan
field stddev nan
field sum 0
field sqrsum 0
field min nan
field max nan
statistic Basic.rack[1].node[0].app 	throughput
field count 78897
field mean 39449
field stddev 22775.746431237
field sum 3112407753
field sqrsum 1.6370746046154e+014
field min 1
field max 78897
statistic Basic.rack[1].node[0].app 	"End-to-End Delay"
field count 78897
field mean 0.00024186740531474
field stddev 0.00044169176870729
field sum 19.082612677117
field sqrsum 0.02000741035147
field min 9.4416e-006
field max 0.00125551986
statistic Basic.rack[1].node[0].app 	hops
field count 78897
field mean 5.5307299390344
field stddev 0.4990579401293
field sum 436358
field sqrsum 2433028
field min 5
field max 6
statistic Basic.rack[1].node[1].app 	throughput
field count 78826
field mean 39413.5
field stddev 22755.25049668
field sum 3106808551
field sqrsum 1.632658961636e+014
field min 1
field max 78826
statistic Basic.rack[1].node[1].app 	"End-to-End Delay"
field count 78826
field mean 0.00024040516725228
field stddev 0.00044026082213589
field sum 18.950177713828
field sqrsum 0.019834338193353
field min 9.4416e-006
field max 0.001255517966
statistic Basic.rack[1].node[1].app 	hops
field count 78826
field mean 5.5281506102048
field stddev 0.49921008070185
field sum 435762
field sqrsum 2428602
field min 5
field max 6
statistic Basic.rack[1].node[2].app 	throughput
field count 78911
field mean 39456
field stddev 22779.787883121
field sum 3113512416
field sqrsum 1.6379462334346e+014
field min 1
field max 78911
statistic Basic.rack[1].node[2].app 	"End-to-End Delay"
field count 78911
field mean 0.00024683706489364
field stddev 0.00044511106385648
field sum 19.478159627822
field sqrsum 0.020441885478964
field min 9.4416e-006
field max 0.001255520994
statistic Basic.rack[1].node[2].app 	hops
field count 78911
field mean 5.5292924940756
field stddev 0.49914437498916
field sum 436322
field sqrsum 2432212
field min 5
field max 6
statistic Basic.rack[1].node[3].app 	throughput
field count 79413
field mean 39707
field stddev 22924.702800691
field sum 3153251991
field sqrsum 1.6694051799152e+014
field min 1
field max 79413
statistic Basic.rack[1].node[3].app 	"End-to-End Delay"
field count 79413
field mean 0.00024034835616335
field stddev 0.00044056147502543
field sum 19.086784008
field sqrsum 0.020000902707888
field min 9.4416e-006
field max 0.001255520479
statistic Basic.rack[1].node[3].app 	hops
field count 79413
field mean 5.5300265699571
field stddev 0.49910073320128
field sum 439156
field sqrsum 2448326
field min 5
field max 6
statistic Basic.rack[1].node[4].app 	throughput
field count 78925
field mean 39463
field stddev 22783.829335006
field sum 3114617275
field sqrsum 1.6388181715868e+014
field min 1
field max 78925
statistic Basic.rack[1].node[4].app 	"End-to-End Delay"
field count 78925
field mean 0.00023966253796427
field stddev 0.00043957926650558
field sum 18.91536580883
field sqrsum 0.019783783693255
field min 9.4416e-006
field max 0.001255518397
statistic Basic.rack[1].node[4].app 	hops
field count 78925
field mean 5.5273740893253
field stddev 0.49925325972239
field sum 436248
field sqrsum 2430978
field min 5
field max 6
statistic Basic.rack[1].node[5].app 	throughput
field count 79048
field mean 39524.5
field stddev 22819.336376562
field sum 3124332676
field sqrsum 1.6464920769252e+014
field min 1
field max 79048
statistic Basic.rack[1].node[5].app 	"End-to-End Delay"
field count 79048
field mean 0.00024331933144153
field stddev 0.00044365316827773
field sum 19.23390651179
field sqrsum 0.020238654759849
field min 9.4416e-006
field max 0.001255522194
statistic Basic.rack[1].node[5].app 	hops
field count 79048
field mean 5.5337136929461
field stddev 0.49886524754122
field sum 437429
field sqrsum 2440279
field min 5
field max 6
statistic Basic.rack[1].node[6].app 	throughput
field count 78904
field mean 39452.5
field stddev 22777.767157179
field sum 3112960060
field sqrsum 1.6375103803618e+014
field min 1
field max 78904
statistic Basic.rack[1].node[6].app 	"End-to-End Delay"
field count 78904
field mean 0.00024033454391045
field stddev 0.00044111401654551
field sum 18.96335685271
field sqrsum 0.019910619779215
field min 9.4416e-006
field max 0.001255523612
statistic Basic.rack[1].node[6].app 	hops
field count 78904
field mean 5.5276158369664
field stddev 0.49923994664941
field sum 436151
field sqrsum 2430541
field min 5
field max 6
statistic Basic.rack[1].node[7].app 	throughput
field count 78832
field mean 39416.5
field stddev 22756.982547488
field sum 3107281528
field sqrsum 1.6330318070404e+014
field min 1
field max 78832
statistic Basic.rack[1].node[7].app 	"End-to-End Delay"
field count 78832
field mean 0.00024370686697386
field stddev 0.00044335304347813
field sum 19.211899737283
field sqrsum 0.020177244700657
field min 9.4416e-006
field max 0.001255521247
statistic Basic.rack[1].node[7].app 	hops
field count 78832
field mean 5.5307108788309
field stddev 0.49905911603571
field sum 435997
field sqrsum 2431007
field min 5
field max 6
statistic Basic.rack[1].node[8].app 	throughput
field count 78766
field mean 39383.5
field stddev 22737.929988604
field sum 3102080761
field sqrsum 1.6289336284087e+014
field min 1
field max 78766
statistic Basic.rack[1].node[8].app 	"End-to-End Delay"
field count 78766
field mean 0.0002387239164574
field stddev 0.00043931436846201
field sum 18.803328003683
field sqrsum 0.01969022181424
field min 9.4416e-006
field max 0.001255522823
statistic Basic.rack[1].node[8].app 	hops
field count 78766
field mean 5.5298352080847
field stddev 0.49911223492912
field sum 435563
field sqrsum 2428213
field min 5
field max 6
statistic Basic.rack[1].node[9].app 	throughput
field count 78980
field mean 39490.5
field stddev 22799.706467409
field sum 3118959690
field sqrsum 1.6422466386403e+014
field min 1
field max 78980
statistic Basic.rack[1].node[9].app 	"End-to-End Delay"
field count 78980
field mean 0.00024434202394029
field stddev 0.00044333594758138
field sum 19.298133050804
field sqrsum 0.020238411636904
field min 9.4416e-006
field max 0.001255523588
statistic Basic.rack[1].node[9].app 	hops
field count 78980
field mean 5.527791846037
field stddev 0.49923017628405
field sum 436585
field sqrsum 2433035
field min 5
field max 6
statistic Basic.rack[1].eps.queue[0] 	dropsum
field count 0
field mean nan
field stddev nan
field sum 0
field sqrsum 0
field min nan
field max nan
statistic Basic.rack[1].eps.queue[1] 	dropsum
field count 115
field mean 58
field stddev 33.34166562526
field sum 6670
field sqrsum 513590
field min 1
field max 115
statistic Basic.rack[1].eps.queue[2] 	dropsum
field count 0
field mean nan
field stddev nan
field sum 0
field sqrsum 0
field min nan
field max nan
statistic Basic.rack[1].eps.queue[3] 	dropsum
field count 0
field mean nan
field stddev nan
field sum 0
field sqrsum 0
field min nan
field max nan
statistic Basic.rack[2].node[0].app 	throughput
field count 83415
field mean 41708
field stddev 24079.980689361
field sum 3479072820
field sqrsum 1.9347239921114e+014
field min 1
field max 83415
statistic Basic.rack[2].node[0].app 	"End-to-End Delay"
field count 83415
field mean 0.0001736963978699
field stddev 0.00030626849215613
field sum 14.488885028318
field sqrsum 0.010340932810605
field min 8.496e-007
field max 0.000834977323
statistic Basic.rack[2].node[0].app 	hops
field count 83415
field mean 4.7838038722052
field stddev 0.6977550758103
field sum 399041
field sqrsum 1949545
field min 4
field max 6
statistic Basic.rack[2].node[1].app 	throughput
field count 82971
field mean 41486
field stddev 23951.808929599
field sum 3442134906
field sqrsum 1.9039939756879e+014
field min 1
field max 82971
statistic Basic.rack[2].node[1].app 	"End-to-End Delay"
field count 82971
field mean 0.0001734225581731
field stddev 0.0003061989227812
field sum 14.38904307418
field sqrsum 0.010274467692105
field min 8.496e-007
field max 0.000834932247
statistic Basic.rack[2].node[1].app 	hops
field count 82971
field mean 4.7830928878765
field stddev 0.69801732595555
field sum 396858
field sqrsum 1938634
field min 4
field max 6
statistic Basic.rack[2].node[2].app 	throughput
field count 82419
field mean 41210
field stddev 23792.460255299
field sum 3396486990
field sqrsum 1.8662450631487e+014
field min 1
field max 82419
statistic Basic.rack[2].node[2].app 	"End-to-End Delay"
field count 82419
field mean 0.00017419626520373
field stddev 0.00030685362936637
field sum 14.357081981826
field sqrsum 0.010261358873233
field min 8.496e-007
field max 0.000834991674
statistic Basic.rack[2].node[2].app 	hops
field count 82419
field mean 4.7818100195343
field stddev 0.70007339881777
field sum 394112
field sqrsum 1924962
field min 4
field max 6
statistic Basic.rack[2].node[3].app 	throughput
field count 83534
field mean 41767.5
field stddev 24114.333030378
field sum 3489006345
field sqrsum 1.9430160035094e+014
field min 1
field max 83534
statistic Basic.rack[2].node[3].app 	"End-to-End Delay"
field count 83534
field mean 0.00017423107732175
field stddev 0.00030662340041419
field sum 14.554218812995
field sqrsum 0.010389395272794
field min 8.496e-007
field max 0.000834973246
statistic Basic.rack[2].node[3].app 	hops
field count 83534
field mean 4.7827112313549
field stddev 0.69893735096086
field sum 399519
field sqrsum 1951591
field min 4
field max 6
statistic Basic.rack[2].node[4].app 	throughput
field count 83141
field mean 41571
field stddev 24000.883702481
field sum 3456254511
field sqrsum 1.9157212295087e+014
field min 1
field max 83141
statistic Basic.rack[2].node[4].app 	"End-to-End Delay"
field count 83141
field mean 0.00017529204090659
field stddev 0.00030723074893143
field sum 14.573955573015
field sqrsum 0.010402343965493
field min 8.496e-007
field max 0.000834960739
statistic Basic.rack[2].node[4].app 	hops
field count 83141
field mean 4.7876378681998
field stddev 0.6980895456337
field sum 398049
field sqrsum 1946231
field min 4
field max 6
statistic Basic.rack[2].node[5].app 	throughput
field count 83498
field mean 41749.5
field stddev 24103.940725533
field sum 3485999751
field sqrsum 1.9405050013925e+014
field min 1
field max 83498
statistic Basic.rack[2].node[5].app 	"End-to-End Delay"
field count 83498
field mean 0.00017361123144363
field stddev 0.00030573155994953
field sum 14.49619060308
field sqrsum 0.010321315280038
field min 8.496e-007
field max 0.000835015066
statistic Basic.rack[2].node[5].app 	hops
field count 83498
field mean 4.7812282928932
field stddev 0.69740456686795
field sum 399223
field sqrsum 1949387
field min 4
field max 6
statistic Basic.rack[2].node[6].app 	throughput
field count 83602
field mean 41801.5
field stddev 24133.962939531
field sum 3494689003
field sqrsum 1.947764915822e+014
field min 1
field max 83602
statistic Basic.rack[2].node[6].app 	"End-to-End Delay"
field count 83602
field mean 0.00017309948357644
field stddev 0.00030578736557007
field sum 14.471463025958
field sqrsum 0.010322190604277
field min 8.496e-007
field max 0.000835002658
statistic Basic.rack[2].node[6].app 	hops
field count 83602
field mean 4.781057869429
field stddev 0.69782639531234
field sum 399706
field sqrsum 1951728
field min 4
field max 6
statistic Basic.rack[2].node[7].app 	throughput
field count 82885
field mean 41443
field stddev 23926.982868023
field sum 3435003055
field sqrsum 1.8980796381014e+014
field min 1
field max 82885
statistic Basic.rack[2].node[7].app 	"End-to-End Delay"
field count 82885
field mean 0.00017443709866144
field stddev 0.00030691090158235
field sum 14.458218922553
field sqrsum 0.010329250247024
field min 8.496e-007
field max 0.000834966179
statistic Basic.rack[2].node[7].app 	hops
field count 82885
field mean 4.7838692163841
field stddev 0.69916419541672
field sum 396511
field sqrsum 1937373
field min 4
field max 6
statistic Basic.rack[2].node[8].app 	throughput
field count 83163
field mean 41582
field stddev 24007.234555442
field sum 3458083866
field sqrsum 1.9172423839339e+014
field min 1
field max 83163
statistic Basic.rack[2].node[8].app 	"End-to-End Delay"
field count 83163
field mean 0.00017307883813513
field stddev 0.00030560626491936
field sum 14.393755415832
field sqrsum 0.010258185184528
field min 8.496e-007
field max 0.000834968791
statistic Basic.rack[2].node[8].app 	hops
field count 83163
field mean 4.7805634717362
field stddev 0.69742819304801
field sum 397566
field sqrsum 1941040
field min 4
field max 6
statistic Basic.rack[2].node[9].app 	throughput
field count 83163
field mean 41582
field stddev 24007.234555442
field sum 3458083866
field sqrsum 1.9172423839339e+014
field min 1
field max 83163
statistic Basic.rack[2].node[9].app 	"End-to-End Delay"
field count 83163
field mean 0.00017514398806315
field stddev 0.00030673814182939
field sum 14.565499479296
field sqrsum 0.01037562984473
field min 8.496e-007
field max 0.000834952599
statistic Basic.rack[2].node[9].app 	hops
field count 83163
field mean 4.7821747652201
field stddev 0.69901771439389
field sum 397700
field sqrsum 1942506
field min 4
field max 6
statistic Basic.rack[2].eps.queue[0] 	dropsum
field count 0
field mean nan
field stddev nan
field sum 0
field sqrsum 0
field min nan
field max nan
statistic Basic.rack[2].eps.queue[1] 	dropsum
field count 2433886
field mean 1216943.5
field stddev 702602.5129775
field sum 2961901747441
field sqrsum 4.8059551182872e+018
field min 1
field max 2433886
statistic Basic.rack[2].eps.queue[2] 	dropsum
field count 0
field mean nan
field stddev nan
field sum 0
field sqrsum 0
field min nan
field max nan
statistic Basic.rack[2].eps.queue[3] 	dropsum
field count 0
field mean nan
field stddev nan
field sum 0
field sqrsum 0
field min nan
field max nan
statistic Basic.rack[3].node[0].app 	throughput
field count 48703
field mean 24352
field stddev 14059.489416998
field sum 1186015456
field sqrsum 38508735840864
field min 1
field max 48703
statistic Basic.rack[3].node[0].app 	"End-to-End Delay"
field count 48703
field mean 0.00060509805161659
field stddev 0.00020819680275017
field sum 29.470090407883
field sqrsum 0.019943326731084
field min 4.2491767e-005
field max 0.001248613943
statistic Basic.rack[3].node[0].app 	hops
field count 48703
field mean 4.350943473708
field stddev 0.69105043165908
field sum 211904
field sqrsum 945240
field min 3
field max 5
statistic Basic.rack[3].node[1].app 	throughput
field count 48828
field mean 24414.5
field stddev 14095.573808824
field sum 1192111206
field sqrsum 38806001348114
field min 1
field max 48828
statistic Basic.rack[3].node[1].app 	"End-to-End Delay"
field count 48828
field mean 0.00060473391060367
field stddev 0.00020822405092215
field sum 29.527947386956
field sqrsum 0.019973555803971
field min 0.00039895985
field max 0.00125217225
statistic Basic.rack[3].node[1].app 	hops
field count 48828
field mean 4.3519906610961
field stddev 0.68822871545474
field sum 212499
field sqrsum 947921
field min 3
field max 5
statistic Basic.rack[3].node[2].app 	throughput
field count 49060
field mean 24530.5
field stddev 14162.546440053
field sum 1203466330
field sqrsum 39361773255310
field min 1
field max 49060
statistic Basic.rack[3].node[2].app 	"End-to-End Delay"
field count 49060
field mean 0.0006037200289437
field stddev 0.00020753135416332
field sum 29.618504619978
field sqrsum 0.019994219438039
field min 0.000144420113
field max 0.001253550946
statistic Basic.rack[3].node[2].app 	hops
field count 49060
field mean 4.3522421524664
field stddev 0.68844604436109
field sum 213521
field sqrsum 952547
field min 3
field max 5
statistic Basic.rack[3].node[3].app 	throughput
field count 49187
field mean 24594
field stddev 14199.208182149
field sum 1209705078
field sqrsum 39668245682750
field min 1
field max 49187
statistic Basic.rack[3].node[3].app 	"End-to-End Delay"
field count 49187
field mean 0.00060502212090993
field stddev 0.00020815204742623
field sum 29.759223061197
field sqrsum 0.020136083593777
field min 3.6084753e-005
field max 0.001254428645
statistic Basic.rack[3].node[3].app 	hops
field count 49187
field mean 4.3508650659727
field stddev 0.68813108555923
field sum 214006
field sqrsum 954402
field min 3
field max 5
statistic Basic.rack[3].node[4].app 	throughput
field count 48765
field mean 24383
field stddev 14077.387275343
field sum 1189036995
field sqrsum 38655989053115
field min 1
field max 48765
statistic Basic.rack[3].node[4].app 	"End-to-End Delay"
field count 48765
field mean 0.00060306539835942
field stddev 0.00020756882026082
field sum 29.408484150997
field sqrsum 0.019836227135372
field min 0.000399403357
field max 0.001252931944
statistic Basic.rack[3].node[4].app 	hops
field count 48765
field mean 4.3481595406542
field stddev 0.68979797594408
field sum 212038
field sqrsum 945178
field min 3
field max 5
statistic Basic.rack[3].node[5].app 	throughput
field count 49225
field mean 24613
field stddev 14210.177837264
field sum 1211574925
field sqrsum 39760254313725
field min 1
field max 49225
statistic Basic.rack[3].node[5].app 	"End-to-End Delay"
field count 49225
field mean 0.0006055113325005
field stddev 0.00020879302049131
field sum 29.806295342337
field sqrsum 0.020193946528221
field min 0.000268957359
field max 0.001248338612
statistic Basic.rack[3].node[5].app 	hops
field count 49225
field mean 4.3515083798883
field stddev 0.69107828380887
field sum 214203
field sqrsum 955615
field min 3
field max 5
statistic Basic.rack[3].node[6].app 	throughput
field count 48722
field mean 24361.5
field stddev 14064.974244555
field sum 1186941003
field sqrsum 38553822012445
field min 1
field max 48722
statistic Basic.rack[3].node[6].app 	"End-to-End Delay"
field count 48722
field mean 0.00060295125065402
field stddev 0.00020715768055222
field sum 29.376990834365
field sqrsum 0.019803721199023
field min 0.00030941889
field max 0.00124066969
statistic Basic.rack[3].node[6].app 	hops
field count 48722
field mean 4.3504782233898
field stddev 0.68763356692494
field sum 211964
field sqrsum 945182
field min 3
field max 5
statistic Basic.rack[3].node[7].app 	throughput
field count 48852
field mean 24426.5
field stddev 14102.502012054
field sum 1193283378
field sqrsum 38863250815830
field min 1
field max 48852
statistic Basic.rack[3].node[7].app 	"End-to-End Delay"
field count 48852
field mean 0.0006049443985862
field stddev 0.00020853411395857
field sum 29.552743759733
field sqrsum 0.020002124672817
field min 0.000172200938
field max 0.001247952544
statistic Basic.rack[3].node[7].app 	hops
field count 48852
field mean 4.3532915745517
field stddev 0.69304278295603
field sum 212667
field sqrsum 949265
field min 3
field max 5
statistic Basic.rack[3].node[8].app 	throughput
field count 48656
field mean 24328.5
field stddev 14045.921685671
field sum 1183727496
field sqrsum 38397357939416
field min 1
field max 48656
statistic Basic.rack[3].node[8].app 	"End-to-End Delay"
field count 48656
field mean 0.00060428866478695
field stddev 0.00020746538352242
field sum 29.402269273874
field sqrsum 0.019861660973412
field min 6.5980676e-005
field max 0.001252557441
statistic Basic.rack[3].node[8].app 	hops
field count 48656
field mean 4.3488161788885
field stddev 0.689869615628
field sum 211596
field sqrsum 943348
field min 3
field max 5
statistic Basic.rack[3].node[9].app 	throughput
field count 49254
field mean 24627.5
field stddev 14218.549416168
field sum 1213002885
field sqrsum 39830567066155
field min 1
field max 49254
statistic Basic.rack[3].node[9].app 	"End-to-End Delay"
field count 49254
field mean 0.00060510591607144
field stddev 0.0002078066268392
field sum 29.803886790182
field sqrsum 0.020161429781741
field min 9.4001203e-005
field max 0.001237569083
statistic Basic.rack[3].node[9].app 	hops
field count 49254
field mean 4.3553213952166
field stddev 0.68754107767066
field sum 214517
field sqrsum 957573
field min 3
field max 5
statistic Basic.rack[3].eps.queue[0] 	dropsum
field count 0
field mean nan
field stddev nan
field sum 0
field sqrsum 0
field min nan
field max nan
statistic Basic.rack[3].eps.queue[1] 	dropsum
field count 0
field mean nan
field stddev nan
field sum 0
field sqrsum 0
field min nan
field max nan
statistic Basic.rack[3].eps.queue[2] 	dropsum
field count 0
field mean nan
field stddev nan
field sum 0
field sqrsum 0
field min nan
field max nan
statistic Basic.rack[3].eps.queue[3] 	dropsum
field count 0
field mean nan
field stddev nan
field sum 0
field sqrsum 0
field min nan
field max nan
statistic Basic.rack[4].node[0].app 	throughput
field count 69711
field mean 34856
field stddev 20123.976644789
field sum 2429846616
field sqrsum 1.1292550158086e+014
field min 1
field max 69711
statistic Basic.rack[4].node[0].app 	"End-to-End Delay"
field count 69711
field mean 0.00022374963628099
field stddev 0.00020215191053858
field sum 15.597810894784
field sqrsum 0.0063387311953643
field min 8.496e-007
field max 0.000427809703
statistic Basic.rack[4].node[0].app 	hops
field count 69711
field mean 4.549626314355
field stddev 0.64818327232239
field sum 317159
field sqrsum 1472243
field min 4
field max 6
statistic Basic.rack[4].node[1].app 	throughput
field count 70024
field mean 35012.5
field stddev 20214.331961919
field sum 2451715300
field sqrsum 1.144534253499e+014
field min 1
field max 70024
statistic Basic.rack[4].node[1].app 	"End-to-End Delay"
field count 70024
field mean 0.00022384941072868
field stddev 0.00020211258013465
field sum 15.674831136865
field sqrsum 0.0063692059050529
field min 8.496e-007
field max 0.000427712116
statistic Basic.rack[4].node[1].app 	hops
field count 70024
field mean 4.5526533759854
field stddev 0.64917721648691
field sum 318795
field sqrsum 1480873
field min 4
field max 6
statistic Basic.rack[4].node[2].app 	throughput
field count 69340
field mean 34670.5
field stddev 20016.878169851
field sum 2404052470
field sqrsum 1.1113213353069e+014
field min 1
field max 69340
statistic Basic.rack[4].node[2].app 	"End-to-End Delay"
field count 69340
field mean 0.00022657022262031
field stddev 0.0002019080023414
field sum 15.710379236492
field sqrsum 0.0063862361375545
field min 8.496e-007
field max 0.000427810238
statistic Basic.rack[4].node[2].app 	hops
field count 69340
field mean 4.5579607730026
field stddev 0.6512006584765
field sum 316049
field sqrsum 1469943
field min 4
field max 6
statistic Basic.rack[4].node[3].app 	throughput
field count 69159
field mean 34580
field stddev 19964.627970488
field sum 2391518220
field sqrsum 1.1026413622406e+014
field min 1
field max 69159
statistic Basic.rack[4].node[3].app 	"End-to-End Delay"
field count 69159
field mean 0.00022492888154804
field stddev 0.00020214514218489
field sum 15.555856518981
field sqrsum 0.0063249411454983
field min 8.496e-007
field max 0.000427769205
statistic Basic.rack[4].node[3].app 	hops
field count 69159
field mean 4.554071053659
field stddev 0.65089250707668
field sum 314955
field sqrsum 1463627
field min 4
field max 6
statistic Basic.rack[4].node[4].app 	throughput
field count 69406
field mean 34703.5
field stddev 20035.930728735
field sum 2408631121
field sqrsum 1.1144977059979e+014
field min 1
field max 69406
statistic Basic.rack[4].node[4].app 	"End-to-End Delay"
field count 69406
field mean 0.0002244761920819
field stddev 0.00020207047089681
field sum 15.579994587636
field sqrsum 0.0063313157995325
field min 8.496e-007
field max 0.000427815633
statistic Basic.rack[4].node[4].app 	hops
field count 69406
field mean 4.5511483157076
field stddev 0.6484499478813
field sum 315877
field sqrsum 1466787
field min 4
field max 6
statistic Basic.rack[4].node[5].app 	throughput
field count 69840
field mean 34920.5
field stddev 20161.215737152
field sum 2438847720
field sqrsum 1.1355356279244e+014
field min 1
field max 69840
statistic Basic.rack[4].node[5].app 	"End-to-End Delay"
field count 69840
field mean 0.00022501312366484
field stddev 0.00020207766879357
field sum 15.714916556752
field sqrsum 0.0063879648614599
field min 8.496e-007
field max 0.000427713153
statistic Basic.rack[4].node[5].app 	hops
field count 69840
field mean 4.5531214203895
field stddev 0.64977903706539
field sum 317990
field sqrsum 1477334
field min 4
field max 6
statistic Basic.rack[4].node[6].app 	throughput
field count 70006
field mean 35003.5
field stddev 20209.135809496
field sum 2450455021
field sqrsum 1.1436518628509e+014
field min 1
field max 70006
statistic Basic.rack[4].node[6].app 	"End-to-End Delay"
field count 70006
field mean 0.00022404808401591
field stddev 0.00020223134247174
field sum 15.684710169618
field sqrsum 0.0063771598608818
field min 8.496e-007
field max 0.000427846016
statistic Basic.rack[4].node[6].app 	hops
field count 70006
field mean 4.5527097677342
field stddev 0.65127216364704
field sum 318717
field sqrsum 1480719
field min 4
field max 6
statistic Basic.rack[4].node[7].app 	throughput
field count 69865
field mean 34933
field stddev 20168.432615517
field sum 2440594045
field sqrsum 1.1367554883396e+014
field min 1
field max 69865
statistic Basic.rack[4].node[7].app 	"End-to-End Delay"
field count 69865
field mean 0.00022442669084295
field stddev 0.00020222190459228
field sum 15.679570755743
field sqrsum 0.0063759115443116
field min 8.496e-007
field max 0.000427802889
statistic Basic.rack[4].node[7].app 	hops
field count 69865
field mean 4.5505474844343
field stddev 0.6498700814274
field sum 317924
field sqrsum 1476234
field min 4
field max 6
statistic Basic.rack[4].node[8].app 	throughput
field count 69550
field mean 34775.5
field stddev 20077.499948118
field sum 2418636025
field sqrsum 1.1214489657118e+014
field min 1
field max 69550
statistic Basic.rack[4].node[8].app 	"End-to-End Delay"
field count 69550
field mean 0.00022337667816769
field stddev 0.00020219116886705
field sum 15.535847966563
field sqrsum 0.0063135974728224
field min 8.496e-007
field max 0.000427750888
statistic Basic.rack[4].node[8].app 	hops
field count 69550
field mean 4.5498202731848
field stddev 0.64781102866867
field sum 316440
field sqrsum 1468932
field min 4
field max 6
statistic Basic.rack[4].node[9].app 	throughput
field count 69929
field mean 34965
field stddev 20186.907824132
field sum 2445067485
field sqrsum 1.139882311282e+014
field min 1
field max 69929
statistic Basic.rack[4].node[9].app 	"End-to-End Delay"
field count 69929
field mean 0.00022370574582221
field stddev 0.00020223445589098
field sum 15.643519099601
field sqrsum 0.006359514656116
field min 8.496e-007
field max 0.000427752678
statistic Basic.rack[4].node[9].app 	hops
field count 69929
field mean 4.5503582204808
field stddev 0.64846180327778
field sum 318202
field sqrsum 1477338
field min 4
field max 6
statistic Basic.rack[4].eps.queue[0] 	dropsum
field count 0
field mean nan
field stddev nan
field sum 0
field sqrsum 0
field min nan
field max nan
statistic Basic.rack[4].eps.queue[1] 	dropsum
field count 102330
field mean 51165.5
field stddev 29540.270860302
field sum 5235765615
field sqrsum 3.571856755105e+014
field min 1
field max 102330
statistic Basic.rack[4].eps.queue[2] 	dropsum
field count 0
field mean nan
field stddev nan
field sum 0
field sqrsum 0
field min nan
field max nan
statistic Basic.rack[4].eps.queue[3] 	dropsum
field count 0
field mean nan
field stddev nan
field sum 0
field sqrsum 0
field min nan
field max nan
statistic Basic.rack[5].node[0].app 	throughput
field count 65042
field mean 32521.5
field stddev 18776.152441328
field sum 2115263403
field sqrsum 91721346593085
field min 1
field max 65042
statistic Basic.rack[5].node[0].app 	"End-to-End Delay"
field count 65042
field mean 0.00058668899993521
field stddev 0.00021636007714692
field sum 38.159425933786
field sqrsum 0.025432394112093
field min 9.4416e-006
field max 0.000845625137
statistic Basic.rack[5].node[0].app 	hops
field count 65042
field mean 5.5628978198702
field stddev 0.6463394806401
field sum 361822
field sqrsum 2039950
field min 5
field max 7
statistic Basic.rack[5].node[1].app 	throughput
field count 65149
field mean 32575
field stddev 18807.040680731
field sum 2122228675
field sqrsum 92174758041275
field min 1
field max 65149
statistic Basic.rack[5].node[1].app 	"End-to-End Delay"
field count 65149
field mean 0.00058613842148248
field stddev 0.00021634039767599
field sum 38.186332021162
field sqrsum 0.025431609140233
field min 9.4416e-006
field max 0.000845582557
statistic Basic.rack[5].node[1].app 	hops
field count 65149
field mean 5.5637231576847
field stddev 0.64320679165832
field sum 362471
field sqrsum 2043641
field min 5
field max 7
statistic Basic.rack[5].node[2].app 	throughput
field count 65503
field mean 32752
field stddev 18909.23167838
field sum 2145354256
field sqrsum 93685475005264
field min 1
field max 65503
statistic Basic.rack[5].node[2].app 	"End-to-End Delay"
field count 65503
field mean 0.00058818700007115
field stddev 0.00021620206618877
field sum 38.528013065661
field sqrsum 0.025723458249751
field min 9.4416e-006
field max 0.000845665584
statistic Basic.rack[5].node[2].app 	hops
field count 65503
field mean 5.5684167137383
field stddev 0.64770058893363
field sum 364748
field sqrsum 2058548
field min 5
field max 7
statistic Basic.rack[5].node[3].app 	throughput
field count 65083
field mean 32542
field stddev 18787.988121847
field sum 2117930986
field sqrsum 91894907551554
field min 1
field max 65083
statistic Basic.rack[5].node[3].app 	"End-to-End Delay"
field count 65083
field mean 0.00058606254716384
field stddev 0.00021629539562884
field sum 38.142708757064
field sqrsum 0.025398789694209
field min 9.4416e-006
field max 0.000845773191
statistic Basic.rack[5].node[3].app 	hops
field count 65083
field mean 5.564325553524
field stddev 0.64463913794978
field sum 362143
field sqrsum 2042127
field min 5
field max 7
statistic Basic.rack[5].node[4].app 	throughput
field count 65281
field mean 32641
field stddev 18845.145798499
field sum 2130837121
field sqrsum 92736162343041
field min 1
field max 65281
statistic Basic.rack[5].node[4].app 	"End-to-End Delay"
field count 65281
field mean 0.00058575308785964
field stddev 0.0002168468585584
field sum 38.238547328565
field sqrsum 0.025467979894125
field min 9.4416e-006
field max 0.00084558788
statistic Basic.rack[5].node[4].app 	hops
field count 65281
field mean 5.5636708996492
field stddev 0.64689115502239
field sum 363202
field sqrsum 2048054
field min 5
field max 7
statistic Basic.rack[5].node[5].app 	throughput
field count 65143
field mean 32572
field stddev 18805.308629923
field sum 2121837796
field sqrsum 92149293642484
field min 1
field max 65143
statistic Basic.rack[5].node[5].app 	"End-to-End Delay"
field count 65143
field mean 0.00058654139679221
field stddev 0.00021693327616394
field sum 38.209066211235
field sqrsum 0.025476784602209
field min 9.4416e-006
field max 0.000845728956
statistic Basic.rack[5].node[5].app 	hops
field count 65143
field mean 5.5670141074252
field stddev 0.64742898137923
field sum 362652
field sqrsum 2046194
field min 5
field max 7
statistic Basic.rack[5].node[6].app 	throughput
field count 65159
field mean 32580
field stddev 18809.927432077
field sum 2122880220
field sqrsum 92217209130060
field min 1
field max 65159
statistic Basic.rack[5].node[6].app 	"End-to-End Delay"
field count 65159
field mean 0.0005858669358078
field stddev 0.00021632108783915
field sum 38.1745036703
field sqrsum 0.025414235919618
field min 9.4416e-006
field max 0.000845579694
statistic Basic.rack[5].node[6].app 	hops
field count 65159
field mean 5.5634985190074
field stddev 0.64516258874551
field sum 362512
field sqrsum 2043956
field min 5
field max 7
statistic Basic.rack[5].node[7].app 	throughput
field count 65354
field mean 32677.5
field stddev 18866.219083325
field sum 2135605335
field sqrsum 93047612577505
field min 1
field max 65354
statistic Basic.rack[5].node[7].app 	"End-to-End Delay"
field count 65354
field mean 0.00058683460771255
field stddev 0.00021675089559568
field sum 38.351988952446
field sqrsum 0.025576620465716
field min 9.4416e-006
field max 0.000845815101
statistic Basic.rack[5].node[7].app 	hops
field count 65354
field mean 5.5639134559476
field stddev 0.64662361414188
field sum 363624
field sqrsum 2050498
field min 5
field max 7
statistic Basic.rack[5].node[8].app 	throughput
field count 65084
field mean 32542.5
field stddev 18788.276796982
field sum 2117996070
field sqrsum 91899143478610
field min 1
field max 65084
statistic Basic.rack[5].node[8].app 	"End-to-End Delay"
field count 65084
field mean 0.00058622545983843
field stddev 0.00021677152576012
field sum 38.153897828124
field sqrsum 0.025425029594878
field min 9.4416e-006
field max 0.000845793237
statistic Basic.rack[5].node[8].app 	hops
field count 65084
field mean 5.563779116219
field stddev 0.64423842107967
field sum 362113
field sqrsum 2041729
field min 5
field max 7
statistic Basic.rack[5].node[9].app 	throughput
field count 65604
field mean 32802.5
field stddev 18938.387866975
field sum 2151975210
field sqrsum 94119505109630
field min 1
field max 65604
statistic Basic.rack[5].node[9].app 	"End-to-End Delay"
field count 65604
field mean 0.00058643152234063
field stddev 0.00021652668415359
field sum 38.472253591635
field sqrsum 0.025637060497788
field min 9.4416e-006
field max 0.000845794562
statistic Basic.rack[5].node[9].app 	hops
field count 65604
field mean 5.5609871349308
field stddev 0.64342060010721
field sum 364823
field sqrsum 2055935
field min 5
field max 7
statistic Basic.rack[5].eps.queue[0] 	dropsum
field count 0
field mean nan
field stddev nan
field sum 0
field sqrsum 0
field min nan
field max nan
statistic Basic.rack[5].eps.queue[1] 	dropsum
field count 596383
field mean 298192
field stddev 172161.08713126
field sum 177836639536
field sqrsum 7.0705891676211e+016
field min 1
field max 596383
statistic Basic.rack[5].eps.queue[2] 	dropsum
field count 0
field mean nan
field stddev nan
field sum 0
field sqrsum 0
field min nan
field max nan
statistic Basic.rack[5].eps.queue[3] 	dropsum
field count 0
field mean nan
field stddev nan
field sum 0
field sqrsum 0
field min nan
field max nan
statistic Basic.rack[6].node[0].app 	throughput
field count 48514
field mean 24257.5
field stddev 14004.929816556
field sum 1176828355
field sqrsum 38062159485765
field min 1
field max 48514
statistic Basic.rack[6].node[0].app 	"End-to-End Delay"
field count 48514
field mean 0.00060537824324032
field stddev 0.00020776239725224
field sum 29.369320092561
field sqrsum 0.019873621415607
field min 7.1482643e-005
field max 0.001252352555
statistic Basic.rack[6].node[0].app 	hops
field count 48514
field mean 6.3512800428742
field stddev 0.6891696946035
field sum 308126
field sqrsum 1980036
field min 5
field max 7
statistic Basic.rack[6].node[1].app 	throughput
field count 48897
field mean 24449
field stddev 14115.492393112
field sum 1195482753
field sqrsum 38970745276545
field min 1
field max 48897
statistic Basic.rack[6].node[1].app 	"End-to-End Delay"
field count 48897
field mean 0.0006058041552213
field stddev 0.00020816500568871
field sum 29.622005777856
field sqrsum 0.020063928398652
field min 1.8067671e-005
field max 0.001244549485
statistic Basic.rack[6].node[1].app 	hops
field count 48897
field mean 6.353457267317
field stddev 0.68888482091392
field sum 310665
field sqrsum 1997001
field min 5
field max 7
statistic Basic.rack[6].node[2].app 	throughput
field count 48680
field mean 24340.5
field stddev 14052.849888902
field sum 1184895540
field sqrsum 38454204889980
field min 1
field max 48680
statistic Basic.rack[6].node[2].app 	"End-to-End Delay"
field count 48680
field mean 0.00060468123869625
field stddev 0.00020820396384898
field sum 29.435882699733
field sqrsum 0.01990950665668
field min 3.2786438e-005
field max 0.001254619552
statistic Basic.rack[6].node[2].app 	hops
field count 48680
field mean 6.345973705834
field stddev 0.69301585560206
field sum 308922
field sqrsum 1983790
field min 5
field max 7
statistic Basic.rack[6].node[3].app 	throughput
field count 48867
field mean 24434
field stddev 14106.832139074
field sum 1194016278
field sqrsum 38899060310110
field min 1
field max 48867
statistic Basic.rack[6].node[3].app 	"End-to-End Delay"
field count 48867
field mean 0.00060608677235626
field stddev 0.0002081204618298
field sum 29.617642304733
field sqrsum 0.020067449341289
field min 2.3476985e-005
field max 0.00125430168
statistic Basic.rack[6].node[3].app 	hops
field count 48867
field mean 6.3534082305032
field stddev 0.68981516429936
field sum 310472
field sqrsum 1995808
field min 5
field max 7
statistic Basic.rack[6].node[4].app 	throughput
field count 49198
field mean 24599.5
field stddev 14202.383608629
field sum 1210246201
field sqrsum 39694865146599
field min 1
field max 49198
statistic Basic.rack[6].node[4].app 	"End-to-End Delay"
field count 49198
field mean 0.00060645403775265
field stddev 0.00020831709901268
field sum 29.836325749355
field sqrsum 0.020229313910419
field min 0.000151567931
field max 0.001251928398
statistic Basic.rack[6].node[4].app 	hops
field count 49198
field mean 6.3581243139965
field stddev 0.6884740653391
field sum 312807
field sqrsum 2012185
field min 5
field max 7
statistic Basic.rack[6].node[5].app 	throughput
field count 48986
field mean 24493.5
field stddev 14141.184480092
field sum 1199838591
field sqrsum 39183928758681
field min 1
field max 48986
statistic Basic.rack[6].node[5].app 	"End-to-End Delay"
field count 48986
field mean 0.0006056645311272
field stddev 0.00020803233296405
field sum 29.669082721797
field sqrsum 0.020089457040263
field min 0.000139633245
field max 0.001252803588
statistic Basic.rack[6].node[5].app 	hops
field count 48986
field mean 6.3500592005879
field stddev 0.69076033346127
field sum 311064
field sqrsum 1998648
field min 5
field max 7
statistic Basic.rack[6].node[6].app 	throughput
field count 49031
field mean 24516
field stddev 14154.17486115
field sum 1202043996
field sqrsum 39292013459916
field min 1
field max 49031
statistic Basic.rack[6].node[6].app 	"End-to-End Delay"
field count 49031
field mean 0.00060454635368831
field stddev 0.00020774830082991
field sum 29.641512267691
field sqrsum 0.020035771408323
field min 0.000258109932
field max 0.001248446905
statistic Basic.rack[6].node[6].app 	hops
field count 49031
field mean 6.3518386327018
field stddev 0.69218757099059
field sum 311437
field sqrsum 2001689
field min 5
field max 7
statistic Basic.rack[6].node[7].app 	throughput
field count 48324
field mean 24162.5
field stddev 13950.08154098
field sum 1167628650
field sqrsum 37616713797950
field min 1
field max 48324
statistic Basic.rack[6].node[7].app 	"End-to-End Delay"
field count 48324
field mean 0.00060630274619732
field stddev 0.00020824260635526
field sum 29.298973907239
field sqrsum 0.019859574419143
field min 0.000234296941
field max 0.001251416886
statistic Basic.rack[6].node[7].app 	hops
field count 48324
field mean 6.3527853654499
field stddev 0.68728244628779
field sum 306992
field sqrsum 1973080
field min 5
field max 7
statistic Basic.rack[6].node[8].app 	throughput
field count 49002
field mean 24501.5
field stddev 14145.803282246
field sum 1200622503
field sqrsum 39222336135505
field min 1
field max 49002
statistic Basic.rack[6].node[8].app 	"End-to-End Delay"
field count 49002
field mean 0.00060392278914968
field stddev 0.0002075581618951
field sum 29.593424513912
field sqrsum 0.019983125691217
field min 0.000222930254
field max 0.001254629356
statistic Basic.rack[6].node[8].app 	hops
field count 49002
field mean 6.3514958573119
field stddev 0.69024336018601
field sum 311236
field sqrsum 2000160
field min 5
field max 7
statistic Basic.rack[6].node[9].app 	throughput
field count 49082
field mean 24541.5
field stddev 14168.897293015
field sum 1204545903
field sqrsum 39414749522665
field min 1
field max 49082
statistic Basic.rack[6].node[9].app 	"End-to-End Delay"
field count 49082
field mean 0.00060638040063824
field stddev 0.00020809253614619
field sum 29.762362824126
field sqrsum 0.020172643672414
field min 0.000125414197
field max 0.001246135027
statistic Basic.rack[6].node[9].app 	hops
field count 49082
field mean 6.3573815247952
field stddev 0.68808844873421
field sum 312033
field sqrsum 2006951
field min 5
field max 7
statistic Basic.rack[6].eps.queue[0] 	dropsum
field count 0
field mean nan
field stddev nan
field sum 0
field sqrsum 0
field min nan
field max nan
statistic Basic.rack[6].eps.queue[1] 	dropsum
field count 1873884
field mean 936942.5
field stddev 540943.86025422
field sum 1755721559670
field sqrsum 2.1933462779909e+018
field min 1
field max 1873884
statistic Basic.rack[6].eps.queue[2] 	dropsum
field count 0
field mean nan
field stddev nan
field sum 0
field sqrsum 0
field min nan
field max nan
statistic Basic.rack[6].eps.queue[3] 	dropsum
field count 0
field mean nan
field stddev nan
field sum 0
field sqrsum 0
field min nan
field max nan
statistic Basic.rack[7].node[0].app 	throughput
field count 40882
field mean 20441.5
field stddev 11801.76118919
field sum 835689403
field sqrsum 22776714678765
field min 1
field max 40882
statistic Basic.rack[7].node[0].app 	"End-to-End Delay"
field count 40882
field mean 0.00079096684961716
field stddev 0.00031937734035675
field sum 32.336306746049
field sqrsum 0.029746885757665
field min 0.000118708023
field max 0.001250901842
statistic Basic.rack[7].node[0].app 	hops
field count 40882
field mean 4.3245193483685
field stddev 0.76460049925798
field sum 176795
field sqrsum 788453
field min 3
field max 5
statistic Basic.rack[7].node[1].app 	throughput
field count 40525
field mean 20263
field stddev 11698.704166132
field sum 821158075
field sqrsum 22185227712275
field min 1
field max 40525
statistic Basic.rack[7].node[1].app 	"End-to-End Delay"
field count 40525
field mean 0.00079141012302179
field stddev 0.00031703866131215
field sum 32.071895235458
field sqrsum 0.029455232145189
field min 1.5464375e-005
field max 0.001251882283
statistic Basic.rack[7].node[1].app 	hops
field count 40525
field mean 4.3174336829118
field stddev 0.76103621490594
field sum 174964
field sqrsum 778866
field min 3
field max 5
statistic Basic.rack[7].node[2].app 	throughput
field count 40932
field mean 20466.5
field stddev 11816.194945921
field sum 837734778
field sqrsum 22860385866990
field min 1
field max 40932
statistic Basic.rack[7].node[2].app 	"End-to-End Delay"
field count 40932
field mean 0.00078919428014512
field stddev 0.00031899126613719
field sum 32.3033002749
field sqrsum 0.029658531224982
field min 0.000416181056
field max 0.001251686145
statistic Basic.rack[7].node[2].app 	hops
field count 40932
field mean 4.3227059513339
field stddev 0.76481686445786
field sum 176937
field sqrsum 788789
field min 3
field max 5
statistic Basic.rack[7].node[3].app 	throughput
field count 40893
field mean 20447
field stddev 11804.936615671
field sum 836139171
field sqrsum 22795104792859
field min 1
field max 40893
statistic Basic.rack[7].node[3].app 	"End-to-End Delay"
field count 40893
field mean 0.0007915622705662
field stddev 0.00031833024704666
field sum 32.369355930264
field sqrsum 0.029766116782714
field min 9.0938319e-005
field max 0.001251338416
statistic Basic.rack[7].node[3].app 	hops
field count 40893
field mean 4.3232093512337
field stddev 0.76317765631977
field sum 176789
field sqrsum 788113
field min 3
field max 5
statistic Basic.rack[7].node[4].app 	throughput
field count 40960
field mean 20480.5
field stddev 11824.27784969
field sum 838881280
field sqrsum 22907331112960
field min 1
field max 40960
statistic Basic.rack[7].node[4].app 	"End-to-End Delay"
field count 40960
field mean 0.00079134938730752
field stddev 0.00031833617896488
field sum 32.413670904116
field sqrsum 0.02980123859188
field min 9.1288865e-005
field max 0.001251949304
statistic Basic.rack[7].node[4].app 	hops
field count 40960
field mean 4.3195556640625
field stddev 0.76449087492037
field sum 176929
field sqrsum 788193
field min 3
field max 5
statistic Basic.rack[7].node[5].app 	throughput
field count 41299
field mean 20650
field stddev 11922.138720325
field sum 852824350
field sqrsum 23480812828550
field min 1
field max 41299
statistic Basic.rack[7].node[5].app 	"End-to-End Delay"
field count 41299
field mean 0.00079331369151074
field stddev 0.00031767035563553
field sum 32.763062145702
field sqrsum 0.030158950932382
field min 0.000306923806
field max 0.001251860982
statistic Basic.rack[7].node[5].app 	hops
field count 41299
field mean 4.3260611637086
field stddev 0.76031114625404
field sum 178662
field sqrsum 796776
field min 3
field max 5
statistic Basic.rack[7].node[6].app 	throughput
field count 40718
field mean 20359.5
field stddev 11754.418467113
field sum 828998121
field sqrsum 22503706659959
field min 1
field max 40718
statistic Basic.rack[7].node[6].app 	"End-to-End Delay"
field count 40718
field mean 0.00079236191722788
field stddev 0.00031752454960364
field sum 32.263392545685
field sqrsum 0.029669446416808
field min 0.000213588652
field max 0.001250835412
statistic Basic.rack[7].node[6].app 	hops
field count 40718
field mean 4.3252615550862
field stddev 0.76080901993965
field sum 176116
field sqrsum 785316
field min 3
field max 5
statistic Basic.rack[7].node[7].app 	throughput
field count 40795
field mean 20398
field stddev 11776.646452478
field sum 832136410
field sqrsum 22631613942770
field min 1
field max 40795
statistic Basic.rack[7].node[7].app 	"End-to-End Delay"
field count 40795
field mean 0.00079047926885427
field stddev 0.00031915234379252
field sum 32.24760177291
field sqrsum 0.029646264839211
field min 0.000178068551
field max 0.001251566827
statistic Basic.rack[7].node[7].app 	hops
field count 40795
field mean 4.3248437308494
field stddev 0.76447914873329
field sum 176432
field sqrsum 786882
field min 3
field max 5
statistic Basic.rack[7].node[8].app 	throughput
field count 40671
field mean 20336
field stddev 11740.850735786
field sum 827085456
field sqrsum 22425870749136
field min 1
field max 40671
statistic Basic.rack[7].node[8].app 	"End-to-End Delay"
field count 40671
field mean 0.00079264062403138
field stddev 0.00031809780599239
field sum 32.23748681998
field sqrsum 0.029667985000778
field min 1.609829e-005
field max 0.001251412802
statistic Basic.rack[7].node[8].app 	hops
field count 40671
field mean 4.3244818175112
field stddev 0.76099939231229
field sum 175881
field sqrsum 784147
field min 3
field max 5
statistic Basic.rack[7].node[9].app 	throughput
field count 40333
field mean 20167
field stddev 11643.278540285
field sum 813395611
field sqrsum 21871394584179
field min 1
field max 40333
statistic Basic.rack[7].node[9].app 	"End-to-End Delay"
field count 40333
field mean 0.00079167649434534
field stddev 0.00031862894405835
field sum 31.930688046431
field sqrsum 0.029373457436428
field min 0.000211194465
field max 0.001251877246
statistic Basic.rack[7].node[9].app 	hops
field count 40333
field mean 4.3240274713014
field stddev 0.76306896685631
field sum 174401
field sqrsum 777599
field min 3
field max 5
statistic Basic.rack[7].eps.queue[0] 	dropsum
field count 0
field mean nan
field stddev nan
field sum 0
field sqrsum 0
field min nan
field max nan
statistic Basic.rack[7].eps.queue[1] 	dropsum
field count 0
field mean nan
field stddev nan
field sum 0
field sqrsum 0
field min nan
field max nan
statistic Basic.rack[7].eps.queue[2] 	dropsum
field count 0
field mean nan
field stddev nan
field sum 0
field sqrsum 0
field min nan
field max nan
statistic Basic.rack[7].eps.queue[3] 	dropsum
field count 0
field mean nan
field stddev nan
field sum 0
field sqrsum 0
field min nan
field max nan
statistic Basic.rack[8].node[0].app 	throughput
field count 40549
field mean 20275
field stddev 11705.632369362
field sum 822130975
field sqrsum 22224666647175
field min 1
field max 40549
statistic Basic.rack[8].node[0].app 	"End-to-End Delay"
field count 40549
field mean 0.00079902344173431
field stddev 0.00031790328294242
field sum 32.399601538885
field sqrsum 0.029985923273166
field min 0.000198290252
field max 0.001260539721
statistic Basic.rack[8].node[0].app 	hops
field count 40549
field mean 5.3150755875607
field stddev 0.76527221813777
field sum 215521
field sqrsum 1169257
field min 4
field max 6
statistic Basic.rack[8].node[1].app 	throughput
field count 40958
field mean 20479.5
field stddev 11823.700499421
field sum 838799361
field sqrsum 22903975751679
field min 1
field max 40958
statistic Basic.rack[8].node[1].app 	"End-to-End Delay"
field count 40958
field mean 0.00080133321179941
field stddev 0.00031801240553409
field sum 32.82100568888
field sqrsum 0.030442620724901
field min 0.000165957625
field max 0.001260057483
statistic Basic.rack[8].node[1].app 	hops
field count 40958
field mean 5.316372869769
field stddev 0.76403200968477
field sum 217748
field sqrsum 1181538
field min 4
field max 6
statistic Basic.rack[8].node[2].app 	throughput
field count 40847
field mean 20424
field stddev 11791.657559478
field sum 834259128
field sqrsum 22718266487320
field min 1
field max 40847
statistic Basic.rack[8].node[2].app 	"End-to-End Delay"
field count 40847
field mean 0.00079994759166938
field stddev 0.00031822687903845
field sum 32.675459276919
field sqrsum 0.030275061838139
field min 0.000337382378
field max 0.001259851025
statistic Basic.rack[8].node[2].app 	hops
field count 40847
field mean 5.3214434352584
field stddev 0.76255342563745
field sum 217365
field sqrsum 1180447
field min 4
field max 6
statistic Basic.rack[8].node[3].app 	throughput
field count 41304
field mean 20652.5
field stddev 11923.582095998
field sum 853030860
field sqrsum 23489342104580
field min 1
field max 41304
statistic Basic.rack[8].node[3].app 	"End-to-End Delay"
field count 41304
field mean 0.00080112677582017
field stddev 0.00031824843364423
field sum 33.089740348476
field sqrsum 0.03069233015015
field min 0.000230148718
field max 0.001260334497
statistic Basic.rack[8].node[3].app 	hops
field count 41304
field mean 5.3205258570598
field stddev 0.7637965580906
field sum 219759
field sqrsum 1193329
field min 4
field max 6
statistic Basic.rack[8].node[4].app 	throughput
field count 41072
field mean 20536.5
field stddev 11856.609464767
field sum 843475128
field sqrsum 23095754796520
field min 1
field max 41072
statistic Basic.rack[8].node[4].app 	"End-to-End Delay"
field count 41072
field mean 0.00080078537311276
field stddev 0.00031864340105199
field sum 32.889856844487
field sqrsum 0.03050780347004
field min 0.000112096063
field max 0.001259617225
statistic Basic.rack[8].node[4].app 	hops
field count 41072
field mean 5.321971172575
field stddev 0.76398844410133
field sum 218584
field sqrsum 1187270
field min 4
field max 6
statistic Basic.rack[8].node[5].app 	throughput
field count 40798
field mean 20399.5
field stddev 11777.512477882
field sum 832258801
field sqrsum 22636607128399
field min 1
field max 40798
statistic Basic.rack[8].node[5].app 	"End-to-End Delay"
field count 40798
field mean 0.00080016335907432
field stddev 0.000318200646505
field sum 32.645064723514
field sqrsum 0.030252148270008
field min 4.5021126e-005
field max 0.001260029805
statistic Basic.rack[8].node[5].app 	hops
field count 40798
field mean 5.3210696602775
field stddev 0.76310536094113
field sum 217089
field sqrsum 1178903
field min 4
field max 6
statistic Basic.rack[8].node[6].app 	throughput
field count 41133
field mean 20567
field stddev 11874.218647978
field sum 845982411
field sqrsum 23198811668579
field min 1
field max 41133
statistic Basic.rack[8].node[6].app 	"End-to-End Delay"
field count 41133
field mean 0.00080242556584637
field stddev 0.00031913624013017
field sum 33.006170799959
field sqrsum 0.030674204738969
field min 0.000263481434
field max 0.001260104833
statistic Basic.rack[8].node[6].app 	hops
field count 41133
field mean 5.323219799188
field stddev 0.76440099293339
field sum 218960
field sqrsum 1189606
field min 4
field max 6
statistic Basic.rack[8].node[7].app 	throughput
field count 40648
field mean 20324.5
field stddev 11734.21120769
field sum 826150276
field sqrsum 22387846329324
field min 1
field max 40648
statistic Basic.rack[8].node[7].app 	"End-to-End Delay"
field count 40648
field mean 0.00080079918596964
field stddev 0.00031840985131848
field sum 32.550885311294
field sqrsum 0.030187711783762
field min 5.7193655e-005
field max 0.001259396147
statistic Basic.rack[8].node[7].app 	hops
field count 40648
field mean 5.3226973036804
field stddev 0.7627219448232
field sum 216357
field sqrsum 1175249
field min 4
field max 6
statistic Basic.rack[8].node[8].app 	throughput
field count 40488
field mean 20244.5
field stddev 11688.023186151
field sum 819659316
field sqrsum 22124517477244
field min 1
field max 40488
statistic Basic.rack[8].node[8].app 	"End-to-End Delay"
field count 40488
field mean 0.00080131893073499
field stddev 0.00031879866900392
field sum 32.443800867598
field sqrsum 0.030112630546541
field min 0.000424773177
field max 0.001259661329
statistic Basic.rack[8].node[8].app 	hops
field count 40488
field mean 5.3229598893499
field stddev 0.76427275129002
field sum 215516
field sqrsum 1170832
field min 4
field max 6
statistic Basic.rack[8].node[9].app 	throughput
field count 40809
field mean 20405
field stddev 11780.687904363
field sum 832707645
field sqrsum 22654921759085
field min 1
field max 40809
statistic Basic.rack[8].node[9].app 	"End-to-End Delay"
field count 40809
field mean 0.00079994056842612
field stddev 0.00031916933727267
field sum 32.644774656902
field sqrsum 0.030270952434599
field min 0.000110979223
field max 0.001260291809
statistic Basic.rack[8].node[9].app 	hops
field count 40809
field mean 5.3230169815482
field stddev 0.76426495094495
field sum 217227
field sqrsum 1180139
field min 4
field max 6
statistic Basic.rack[8].eps.queue[0] 	dropsum
field count 0
field mean nan
field stddev nan
field sum 0
field sqrsum 0
field min nan
field max nan
statistic Basic.rack[8].eps.queue[1] 	dropsum
field count 232065
field mean 116033
field stddev 66991.539447157
field sum 26927198145
field sqrsum 4.1659158007457e+015
field min 1
field max 232065
statistic Basic.rack[8].eps.queue[2] 	dropsum
field count 0
field mean nan
field stddev nan
field sum 0
field sqrsum 0
field min nan
field max nan
statistic Basic.rack[8].eps.queue[3] 	dropsum
field count 0
field mean nan
field stddev nan
field sum 0
field sqrsum 0
field min nan
field max nan
statistic Basic.rack[9].node[0].app 	throughput
field count 82745
field mean 41373
field stddev 23886.568349179
field sum 3423408885
field sqrsum 1.8884778659584e+014
field min 1
field max 82745
statistic Basic.rack[9].node[0].app 	"End-to-End Delay"
field count 82745
field mean 0.00028234301245449
field stddev 0.0004693513094854
field sum 23.362472565547
field sqrsum 0.024823960568102
field min 9.4416e-006
field max 0.001261156767
statistic Basic.rack[9].node[0].app 	hops
field count 82745
field mean 5.5320442322799
field stddev 0.49897512576775
field sum 457749
field sqrsum 2552889
field min 5
field max 6
statistic Basic.rack[9].node[1].app 	throughput
field count 82631
field mean 41316
field stddev 23853.659383835
field sum 3413982396
field sqrsum 1.8806832423672e+014
field min 1
field max 82631
statistic Basic.rack[9].node[1].app 	"End-to-End Delay"
field count 82631
field mean 0.00028129805041431
field stddev 0.00046930429663183
field sum 23.243939203784
field sqrsum 0.024737444964003
field min 9.4416e-006
field max 0.001261156077
statistic Basic.rack[9].node[1].app 	hops
field count 82631
field mean 5.5343636165604
field stddev 0.49882076250042
field sum 457310
field sqrsum 2551480
field min 5
field max 6
statistic Basic.rack[9].node[2].app 	throughput
field count 83248
field mean 41624.5
field stddev 24031.771941883
field sum 3465156376
field sqrsum 1.9231271371162e+014
field min 1
field max 83248
statistic Basic.rack[9].node[2].app 	"End-to-End Delay"
field count 83248
field mean 0.00028060274193256
field stddev 0.00046919605515145
field sum 23.359617060402
field sqrsum 0.024881178265455
field min 9.4416e-006
field max 0.001261153081
statistic Basic.rack[9].node[2].app 	hops
field count 83248
field mean 5.5332500480492
field stddev 0.49889620577371
field sum 460632
field sqrsum 2569512
field min 5
field max 6
statistic Basic.rack[9].node[3].app 	throughput
field count 83370
field mean 41685.5
field stddev 24066.990308304
field sum 3475320135
field sqrsum 1.9315945154334e+014
field min 1
field max 83370
statistic Basic.rack[9].node[3].app 	"End-to-End Delay"
field count 83370
field mean 0.00028021663599219
field stddev 0.0004690141564106
field sum 23.361660942669
field sqrsum 0.024885361699288
field min 9.4416e-006
field max 0.001261154572
statistic Basic.rack[9].node[3].app 	hops
field count 83370
field mean 5.5351325416817
field stddev 0.49876716855295
field sum 461464
field sqrsum 2575004
field min 5
field max 6
statistic Basic.rack[9].node[4].app 	throughput
field count 82387
field mean 41194
field stddev 23783.222650992
field sum 3393850078
field sqrsum 1.8640721553415e+014
field min 1
field max 82387
statistic Basic.rack[9].node[4].app 	"End-to-End Delay"
field count 82387
field mean 0.0002802118661394
field stddev 0.00046884314063766
field sum 23.085815015627
field sqrsum 0.024578506491504
field min 9.4416e-006
field max 0.001261155757
statistic Basic.rack[9].node[4].app 	hops
field count 82387
field mean 5.534246907886
field stddev 0.49882879784587
field sum 455950
field sqrsum 2543840
field min 5
field max 6
statistic Basic.rack[9].node[5].app 	throughput
field count 82736
field mean 41368.5
field stddev 23883.970272968
field sum 3422664216
field sqrsum 1.8878617193806e+014
field min 1
field max 82736
statistic Basic.rack[9].node[5].app 	"End-to-End Delay"
field count 82736
field mean 0.00027885579691648
field stddev 0.0004680781375483
field sum 23.071413213682
field sqrsum 0.024560599431442
field min 9.4416e-006
field max 0.001261154073
statistic Basic.rack[9].node[5].app 	hops
field count 82736
field mean 5.535099593889
field stddev 0.49876951121125
field sum 457952
field sqrsum 2555392
field min 5
field max 6
statistic Basic.rack[9].node[6].app 	throughput
field count 82214
field mean 41107.5
field stddev 23733.281852706
field sum 3379612005
field sqrsum 1.8523540745672e+014
field min 1
field max 82214
statistic Basic.rack[9].node[6].app 	"End-to-End Delay"
field count 82214
field mean 0.00027944306798942
field stddev 0.00046830251180038
field sum 22.974132391682
field sqrsum 0.024449868372392
field min 9.4416e-006
field max 0.001261155923
statistic Basic.rack[9].node[6].app 	hops
field count 82214
field mean 5.5335344345245
field stddev 0.49887720824281
field sum 454934
field sqrsum 2537854
field min 5
field max 6
statistic Basic.rack[9].node[7].app 	throughput
field count 82370
field mean 41185.5
field stddev 23778.315173704
field sum 3392449635
field sqrsum 1.8629184843984e+014
field min 1
field max 82370
statistic Basic.rack[9].node[7].app 	"End-to-End Delay"
field count 82370
field mean 0.00027818699450028
field stddev 0.00046721465411544
field sum 22.914262736988
field sqrsum 0.024354740427334
field min 9.4416e-006
field max 0.001261148623
statistic Basic.rack[9].node[7].app 	hops
field count 82370
field mean 5.5310671360932
field stddev 0.49903692895396
field sum 455594
field sqrsum 2540434
field min 5
field max 6
statistic Basic.rack[9].node[8].app 	throughput
field count 82645
field mean 41323
field stddev 23857.700835719
field sum 3415139335
field sqrsum 1.881639319405e+014
field min 1
field max 82645
statistic Basic.rack[9].node[8].app 	"End-to-End Delay"
field count 82645
field mean 0.00028037412453998
field stddev 0.00046875220263826
field sum 23.171519522607
field sqrsum 0.024655947189722
field min 9.4416e-006
field max 0.001261153778
statistic Basic.rack[9].node[8].app 	hops
field count 82645
field mean 5.5319136063888
field stddev 0.49898350115668
field sum 457185
field sqrsum 2549685
field min 5
field max 6
statistic Basic.rack[9].node[9].app 	throughput
field count 83125
field mean 41563
field stddev 23996.264900327
field sum 3454924375
field sqrsum 1.9146154408938e+014
field min 1
field max 83125
statistic Basic.rack[9].node[9].app 	"End-to-End Delay"
field count 83125
field mean 0.00028143575197384
field stddev 0.00046983105380339
field sum 23.394346882826
field sqrsum 0.02493289870487
field min 9.4416e-006
field max 0.001261155342
statistic Basic.rack[9].node[9].app 	hops
field count 83125
field mean 5.5301894736842
field stddev 0.49909076556199
field sum 459697
field sqrsum 2562917
field min 5
field max 6
statistic Basic.rack[9].eps.queue[0] 	dropsum
field count 0
field mean nan
field stddev nan
field sum 0
field sqrsum 0
field min nan
field max nan
statistic Basic.rack[9].eps.queue[1] 	dropsum
field count 4
field mean 2.5
field stddev 1.2909944487358
field sum 10
field sqrsum 30
field min 1
field max 4
statistic Basic.rack[9].eps.queue[2] 	dropsum
field count 0
field mean nan
field stddev nan
field sum 0
field sqrsum 0
field min nan
field max nan
statistic Basic.rack[9].eps.queue[3] 	dropsum
field count 0
field mean nan
field stddev nan
field sum 0
field sqrsum 0
field min nan
field max nan
statistic Basic.rack[10].node[0].app 	throughput
field count 82907
field mean 41454
field stddev 23933.333720984
field sum 3436826778
field sqrsum 1.8995914406469e+014
field min 1
field max 82907
statistic Basic.rack[10].node[0].app 	"End-to-End Delay"
field count 82907
field mean 0.00017188388186236
field stddev 0.00030462942634252
field sum 14.250376993563
field sqrsum 0.010143011255124
field min 8.496e-007
field max 0.000834936769
statistic Basic.rack[10].node[0].app 	hops
field count 82907
field mean 4.7791863171988
field stddev 0.69606560067766
field sum 396228
field sqrsum 1933816
field min 4
field max 6
statistic Basic.rack[10].node[1].app 	throughput
field count 82442
field mean 41221.5
field stddev 23799.099783395
field sum 3398382903
field sqrsum 1.8678078832038e+014
field min 1
field max 82442
statistic Basic.rack[10].node[1].app 	"End-to-End Delay"
field count 82442
field mean 0.00017073544187715
field stddev 0.00030345438490238
field sum 14.075771299236
field sqrsum 0.0099947765498869
field min 8.496e-007
field max 0.000834907741
statistic Basic.rack[10].node[1].app 	hops
field count 82442
field mean 4.7756604643264
field stddev 0.69455285030288
field sum 393715
field sqrsum 1920019
field min 4
field max 6
statistic Basic.rack[10].node[2].app 	throughput
field count 82792
field mean 41396.5
field stddev 23900.136080505
field sum 3427299028
field sqrsum 1.8916976985046e+014
field min 1
field max 82792
statistic Basic.rack[10].node[2].app 	"End-to-End Delay"
field count 82792
field mean 0.00016956382467281
field stddev 0.00030304368312058
field sum 14.038528172311
field sqrsum 0.0099835772476138
field min 8.496e-007
field max 0.000834946494
statistic Basic.rack[10].node[2].app 	hops
field count 82792
field mean 4.7750386510774
field stddev 0.69415634988645
field sum 395335
field sqrsum 1927633
field min 4
field max 6
statistic Basic.rack[10].node[3].app 	throughput
field count 83023
field mean 41512
field stddev 23966.820036598
field sum 3446450776
field sqrsum 1.9075760400082e+014
field min 1
field max 83023
statistic Basic.rack[10].node[3].app 	"End-to-End Delay"
field count 83023
field mean 0.00016991292142238
field stddev 0.00030294216572588
field sum 14.106680475251
field sqrsum 0.010016164647448
field min 8.496e-007
field max 0.000834820365
statistic Basic.rack[10].node[3].app 	hops
field count 83023
field mean 4.7757609337172
field stddev 0.69354822889607
field sum 396498
field sqrsum 1933514
field min 4
field max 6
statistic Basic.rack[10].node[4].app 	throughput
field count 82471
field mean 41236
field stddev 23807.471362299
field sum 3400774156
field sqrsum 1.8697796387104e+014
field min 1
field max 82471
statistic Basic.rack[10].node[4].app 	"End-to-End Delay"
field count 82471
field mean 0.00016850217169376
field stddev 0.00030186794031482
field sum 13.896542601756
field sqrsum 0.0098566147844967
field min 8.496e-007
field max 0.000834881721
statistic Basic.rack[10].node[4].app 	hops
field count 82471
field mean 4.7727564840974
field stddev 0.69256325460431
field sum 393614
field sqrsum 1918180
field min 4
field max 6
statistic Basic.rack[10].node[5].app 	throughput
field count 82431
field mean 41216
field stddev 23795.924356915
field sum 3397476096
field sqrsum 1.8670603387162e+014
field min 1
field max 82431
statistic Basic.rack[10].node[5].app 	"End-to-End Delay"
field count 82431
field mean 0.00016908998961236
field stddev 0.0003031712948576
field sum 13.938256933737
field sqrsum 0.0099331946288729
field min 8.496e-007
field max 0.000834949753
statistic Basic.rack[10].node[5].app 	hops
field count 82431
field mean 4.7761521757591
field stddev 0.69421239529186
field sum 393703
field sqrsum 1920111
field min 4
field max 6
statistic Basic.rack[10].node[6].app 	throughput
field count 82609
field mean 41305
field stddev 23847.308530873
field sum 3412164745
field sqrsum 1.8791814900138e+014
field min 1
field max 82609
statistic Basic.rack[10].node[6].app 	"End-to-End Delay"
field count 82609
field mean 0.00017138283395321
field stddev 0.0003043797186797
field sum 14.157764530041
field sqrsum 0.010079782269361
field min 8.496e-007
field max 0.000834900211
statistic Basic.rack[10].node[6].app 	hops
field count 82609
field mean 4.7800239683327
field stddev 0.69514687178711
field sum 394873
field sqrsum 1927421
field min 4
field max 6
statistic Basic.rack[10].node[7].app 	throughput
field count 82575
field mean 41288
field stddev 23837.493576297
field sum 3409356600
field sqrsum 1.876862172822e+014
field min 1
field max 82575
statistic Basic.rack[10].node[7].app 	"End-to-End Delay"
field count 82575
field mean 0.00017207305801942
field stddev 0.00030459443486012
field sum 14.208932765954
field sqrsum 0.010106006071381
field min 8.496e-007
field max 0.000834978748
statistic Basic.rack[10].node[7].app 	hops
field count 82575
field mean 4.7799455040872
field stddev 0.69546233441118
field sum 394704
field sqrsum 1926602
field min 4
field max 6
statistic Basic.rack[10].node[8].app 	throughput
field count 82497
field mean 41249
field stddev 23814.976915798
field sum 3402918753
field sqrsum 1.8715485988374e+014
field min 1
field max 82497
statistic Basic.rack[10].node[8].app 	"End-to-End Delay"
field count 82497
field mean 0.00017194770222963
field stddev 0.00030493708072708
field sum 14.185169590838
field sqrsum 0.010110131784583
field min 8.496e-007
field max 0.000834922181
statistic Basic.rack[10].node[8].app 	hops
field count 82497
field mean 4.778682861195
field stddev 0.6967381444196
field sum 394227
field sqrsum 1923933
field min 4
field max 6
statistic Basic.rack[10].node[9].app 	throughput
field count 82789
field mean 41395
field stddev 23899.270055101
field sum 3427050655
field sqrsum 1.8914920680142e+014
field min 1
field max 82789
statistic Basic.rack[10].node[9].app 	"End-to-End Delay"
field count 82789
field mean 0.00017227619110078
field stddev 0.00030543223299061
field sum 14.262573585043
field sqrsum 0.010180299079368
field min 8.496e-007
field max 0.000834905068
statistic Basic.rack[10].node[9].app 	hops
field count 82789
field mean 4.7797775066736
field stddev 0.69762142130029
field sum 395713
field sqrsum 1931711
field min 4
field max 6
statistic Basic.rack[10].eps.queue[0] 	dropsum
field count 0
field mean nan
field stddev nan
field sum 0
field sqrsum 0
field min nan
field max nan
statistic Basic.rack[10].eps.queue[1] 	dropsum
field count 2412308
field mean 1206154.5
field stddev 696373.48092315
field sum 2909616149586
field sqrsum 4.6792611795939e+018
field min 1
field max 2412308
statistic Basic.rack[10].eps.queue[2] 	dropsum
field count 0
field mean nan
field stddev nan
field sum 0
field sqrsum 0
field min nan
field max nan
statistic Basic.rack[10].eps.queue[3] 	dropsum
field count 0
field mean nan
field stddev nan
field sum 0
field sqrsum 0
field min nan
field max nan
statistic Basic.rack[11].node[0].app 	throughput
field count 45011
field mean 22506
field stddev 12993.700820013
field sum 1013017566
field sqrsum 30398293448006
field min 1
field max 45011
statistic Basic.rack[11].node[0].app 	"End-to-End Delay"
field count 45011
field mean 0.00056704612827718
field stddev 0.00019642205959018
field sum 25.523313279884
field sqrsum 0.016209454939633
field min 0.000328492574
field max 0.001171180169
statistic Basic.rack[11].node[0].app 	hops
field count 45011
field mean 4.3020372797761
field stddev 0.74352426394143
field sum 193639
field sqrsum 857925
field min 3
field max 5
statistic Basic.rack[11].node[1].app 	throughput
field count 45184
field mean 22592.5
field stddev 13043.641618301
field sum 1020819520
field sqrsum 30750146400960
field min 1
field max 45184
statistic Basic.rack[11].node[1].app 	"End-to-End Delay"
field count 45184
field mean 0.00056803938322637
field stddev 0.00019690149773369
field sum 25.6662914917
field sqrsum 0.016331218326658
field min 2.7129398e-005
field max 0.00116827228
statistic Basic.rack[11].node[1].app 	hops
field count 45184
field mean 4.2998406515581
field stddev 0.74784744997815
field sum 194284
field sqrsum 860660
field min 3
field max 5
statistic Basic.rack[11].node[2].app 	throughput
field count 45659
field mean 22830
field stddev 13180.762307242
field sum 1042394970
field sqrsum 31730155421810
field min 1
field max 45659
statistic Basic.rack[11].node[2].app 	"End-to-End Delay"
field count 45659
field mean 0.00056767418895545
field stddev 0.00019625530403143
field sum 25.919435793517
field sqrsum 0.016472364811478
field min 0.000354220646
field max 0.001183485783
statistic Basic.rack[11].node[2].app 	hops
field count 45659
field mean 4.2944216912328
field stddev 0.74968548320456
field sum 196079
field sqrsum 867707
field min 3
field max 5
statistic Basic.rack[11].node[3].app 	throughput
field count 45092
field mean 22546.5
[...]
field count 66476
field mean 5.578644924484
field stddev 0.6706868867883
field sum 370846
field sqrsum 2098720
field min 5
field max 7
statistic Basic.rack[13].node[2].app 	throughput
field count 66454
field mean 33227.5
field stddev 19183.761731388
field sum 2208100285
field sqrsum 97825466926355
field min 1
field max 66454
statistic Basic.rack[13].node[2].app 	"End-to-End Delay"
field count 66454
field mean 0.00061205642157813
field stddev 0.00020801848822265
field sum 40.673597439553
field sqrsum 0.027770070212986
field min 9.4416e-006
field max 0.000845800823
statistic Basic.rack[13].node[2].app 	hops
field count 66454
field mean 5.5773617840913
field stddev 0.66886515894126
field sum 370638
field sqrsum 2096912
field min 5
field max 7
statistic Basic.rack[13].node[3].app 	throughput
field count 66258
field mean 33129.5
field stddev 19127.181405006
field sum 2195094411
field sqrsum 96962442020829
field min 1
field max 66258
statistic Basic.rack[13].node[3].app 	"End-to-End Delay"
field count 66258
field mean 0.00061205680898083
field stddev 0.00020818410842216
field sum 40.553660049452
field sqrsum 0.027692763420441
field min 9.4416e-006
field max 0.000845808707
statistic Basic.rack[13].node[3].app 	hops
field count 66258
field mean 5.5800808958918
field stddev 0.67153930761875
field sum 369725
field sqrsum 2092975
field min 5
field max 7
statistic Basic.rack[13].node[4].app 	throughput
field count 66245
field mean 33123
field stddev 19123.428628256
field sum 2194233135
field sqrsum 96905380763095
field min 1
field max 66245
statistic Basic.rack[13].node[4].app 	"End-to-End Delay"
field count 66245
field mean 0.000611929454077
field stddev 0.00020821723562993
field sum 40.537266685331
field sqrsum 0.027677917486411
field min 9.4416e-006
field max 0.000845905088
statistic Basic.rack[13].node[4].app 	hops
field count 66245
field mean 5.575922711148
field stddev 0.66768054171354
field sum 369377
field sqrsum 2089149
field min 5
field max 7
statistic Basic.rack[13].node[5].app 	throughput
field count 66233
field mean 33117
field stddev 19119.964526641
field sum 2193438261
field sqrsum 96852728706629
field min 1
field max 66233
statistic Basic.rack[13].node[5].app 	"End-to-End Delay"
field count 66233
field mean 0.00061147168363193
field stddev 0.00020761914540662
field sum 40.499604021993
field sqrsum 0.027619338411966
field min 9.4416e-006
field max 0.000845801728
statistic Basic.rack[13].node[5].app 	hops
field count 66233
field mean 5.5760119577854
field stddev 0.67085604180171
field sum 369316
field sqrsum 2089118
field min 5
field max 7
statistic Basic.rack[13].node[6].app 	throughput
field count 65735
field mean 32868
field stddev 18976.204309608
field sum 2160577980
field sqrsum 94684449202860
field min 1
field max 65735
statistic Basic.rack[13].node[6].app 	"End-to-End Delay"
field count 65735
field mean 0.00061125386568326
field stddev 0.00020808523856692
field sum 40.180772860689
field sqrsum 0.027406899868769
field min 9.4416e-006
field max 0.000845803785
statistic Basic.rack[13].node[6].app 	hops
field count 65735
field mean 5.5767551532669
field stddev 0.67000555463657
field sum 366588
field sqrsum 2073880
field min 5
field max 7
statistic Basic.rack[13].node[7].app 	throughput
field count 65550
field mean 32775.5
field stddev 18922.799409707
field sum 2148434025
field sqrsum 93887283037175
field min 1
field max 65550
statistic Basic.rack[13].node[7].app 	"End-to-End Delay"
field count 65550
field mean 0.00061239906341659
field stddev 0.00020758647860717
field sum 40.142758606957
field sqrsum 0.027408034858602
field min 9.4416e-006
field max 0.000845602664
statistic Basic.rack[13].node[7].app 	hops
field count 65550
field mean 5.5750419527079
field stddev 0.66732401561384
field sum 365444
field sqrsum 2066556
field min 5
field max 7
statistic Basic.rack[13].node[8].app 	throughput
field count 66439
field mean 33220
field stddev 19179.431604369
field sum 2207103580
field sqrsum 97759238868940
field min 1
field max 66439
statistic Basic.rack[13].node[8].app 	"End-to-End Delay"
field count 66439
field mean 0.00061240862537396
field stddev 0.00020756879688712
field sum 40.68781666122
field sqrsum 0.027780038174866
field min 9.4416e-006
field max 0.000845770361
statistic Basic.rack[13].node[8].app 	hops
field count 66439
field mean 5.578079140264
field stddev 0.67121982656117
field sum 370602
field sqrsum 2097180
field min 5
field max 7
statistic Basic.rack[13].node[9].app 	throughput
field count 66304
field mean 33152.5
field stddev 19140.460461198
field sum 2198143360
field sqrsum 97164530942080
field min 1
field max 66304
statistic Basic.rack[13].node[9].app 	"End-to-End Delay"
field count 66304
field mean 0.00061164166296851
field stddev 0.00020785205279491
field sum 40.554288821464
field sqrsum 0.027669146411618
field min 9.4416e-006
field max 0.00084582098
statistic Basic.rack[13].node[9].app 	hops
field count 66304
field mean 5.5781400820463
field stddev 0.6691185651569
field sum 369853
field sqrsum 2092777
field min 5
field max 7
statistic Basic.rack[13].eps.queue[0] 	dropsum
field count 0
field mean nan
field stddev nan
field sum 0
field sqrsum 0
field min nan
field max nan
statistic Basic.rack[13].eps.queue[1] 	dropsum
field count 588145
field mean 294073
field stddev 169782.98137249
field sum 172957564585
field sqrsum 6.7816142200829e+016
field min 1
field max 588145
statistic Basic.rack[13].eps.queue[2] 	dropsum
field count 0
field mean nan
field stddev nan
field sum 0
field sqrsum 0
field min nan
field max nan
statistic Basic.rack[13].eps.queue[3] 	dropsum
field count 0
field mean nan
field stddev nan
field sum 0
field sqrsum 0
field min nan
field max nan
statistic Basic.rack[14].node[0].app 	throughput
field count 45123
field mean 22562
field stddev 13026.032435089
field sum 1018065126
field sqrsum 30625774475374
field min 1
field max 45123
statistic Basic.rack[14].node[0].app 	"End-to-End Delay"
field count 45123
field mean 0.00056874734490001
field stddev 0.00019686881920878
field sum 25.663586443923
field sqrsum 0.016344904984044
field min 0.000117238398
field max 0.001171681189
statistic Basic.rack[14].node[0].app 	hops
field count 45123
field mean 6.3002238326352
field stddev 0.74604088872687
field sum 284285
field sqrsum 1816173
field min 5
field max 7
statistic Basic.rack[14].node[1].app 	throughput
field count 45174
field mean 22587.5
field stddev 13040.754866955
field sum 1020367725
field sqrsum 30729734528675
field min 1
field max 45174
statistic Basic.rack[14].node[1].app 	"End-to-End Delay"
field count 45174
field mean 0.00056730537483148
field stddev 0.00019611241582484
field sum 25.627453002637
field sqrsum 0.016275949009245
field min 0.000393067302
field max 0.001160628051
statistic Basic.rack[14].node[1].app 	hops
field count 45174
field mean 6.2995085668748
field stddev 0.74751411148592
field sum 284574
field sqrsum 1817918
field min 5
field max 7
statistic Basic.rack[14].node[2].app 	throughput
field count 44883
field mean 22442
field stddev 12956.750402782
field sum 1007264286
field sqrsum 30139697720454
field min 1
field max 44883
statistic Basic.rack[14].node[2].app 	"End-to-End Delay"
field count 44883
field mean 0.00056663031391064
field stddev 0.00019582098853695
field sum 25.432068379251
field sqrsum 0.016131619757526
field min 0.000271774296
field max 0.001152551036
statistic Basic.rack[14].node[2].app 	hops
field count 44883
field mean 6.2944990308134
field stddev 0.74719014981113
field sum 282516
field sqrsum 1803354
field min 5
field max 7
statistic Basic.rack[14].node[3].app 	throughput
field count 45034
field mean 22517.5
field stddev 13000.340348109
field sum 1014053095
field sqrsum 30444916071185
field min 1
field max 45034
statistic Basic.rack[14].node[3].app 	"End-to-End Delay"
field count 45034
field mean 0.00056776631632965
field stddev 0.00019617851719096
field sum 25.568788289589
field sqrsum 0.016250237255869
field min 9.7356177e-005
field max 0.001165220069
statistic Basic.rack[14].node[3].app 	hops
field count 45034
field mean 6.2976417817649
field stddev 0.74636938036975
field sum 283608
field sqrsum 1811148
field min 5
field max 7
statistic Basic.rack[14].node[4].app 	throughput
field count 45233
field mean 22617
field stddev 13057.786699897
field sum 1023034761
field sqrsum 30850295241129
field min 1
field max 45233
statistic Basic.rack[14].node[4].app 	"End-to-End Delay"
field count 45233
field mean 0.00056798775443185
field stddev 0.00019649165623829
field sum 25.691790096216
field sqrsum 0.016338983139056
field min 7.6219493e-005
field max 0.001170735269
statistic Basic.rack[14].node[4].app 	hops
field count 45233
field mean 6.2967302633033
field stddev 0.74479811409842
field sum 284820
field sqrsum 1818526
field min 5
field max 7
statistic Basic.rack[14].node[5].app 	throughput
field count 45063
field mean 22532
field stddev 13008.711927013
field sum 1015359516
field sqrsum 30503769032844
field min 1
field max 45063
statistic Basic.rack[14].node[5].app 	"End-to-End Delay"
field count 45063
field mean 0.00056700667107895
field stddev 0.00019619666930766
field sum 25.551021618831
field sqrsum 0.016222177272142
field min 0.00021349938
field max 0.001202581724
statistic Basic.rack[14].node[5].app 	hops
field count 45063
field mean 6.2987595144575
field stddev 0.74622421297183
field sum 283841
field sqrsum 1812939
field min 5
field max 7
statistic Basic.rack[14].node[6].app 	throughput
field count 45083
field mean 22542
field stddev 13014.485429705
field sum 1016260986
field sqrsum 30544401441554
field min 1
field max 45083
statistic Basic.rack[14].node[6].app 	"End-to-End Delay"
field count 45083
field mean 0.00056720100939778
field stddev 0.00019600738197958
field sum 25.57112310668
field sqrsum 0.016235967407407
field min 0.000393679376
field max 0.001227547697
statistic Basic.rack[14].node[6].app 	hops
field count 45083
field mean 6.2997804050307
field stddev 0.74583069608439
field sum 284013
field sqrsum 1814297
field min 5
field max 7
statistic Basic.rack[14].node[7].app 	throughput
field count 45433
field mean 22717
field stddev 13115.521726819
field sum 1032101461
field sqrsum 31261321152229
field min 1
field max 45433
statistic Basic.rack[14].node[7].app 	"End-to-End Delay"
field count 45433
field mean 0.00056812263580109
field stddev 0.00019654213546131
field sum 25.811515712351
field sqrsum 0.016419090482405
field min 3.1844985e-005
field max 0.001164888618
statistic Basic.rack[14].node[7].app 	hops
field count 45433
field mean 6.2942354676116
field stddev 0.74893039108832
field sum 285966
field sqrsum 1825420
field min 5
field max 7
statistic Basic.rack[14].node[8].app 	throughput
field count 45410
field mean 22705.5
field stddev 13108.882198723
field sum 1031056755
field sqrsum 31213868515285
field min 1
field max 45410
statistic Basic.rack[14].node[8].app 	"End-to-End Delay"
field count 45410
field mean 0.00056793189516291
field stddev 0.00019655039711219
field sum 25.789787359348
field sqrsum 0.016401085960035
field min 0.000135636857
field max 0.001185729202
statistic Basic.rack[14].node[8].app 	hops
field count 45410
field mean 6.2959260074873
field stddev 0.75062786247432
field sum 285898
field sqrsum 1825578
field min 5
field max 7
statistic Basic.rack[14].node[9].app 	throughput
field count 45458
field mean 22729.5
field stddev 13122.738605185
field sum 1033237611
field sqrsum 31312954626429
field min 1
field max 45458
statistic Basic.rack[14].node[9].app 	"End-to-End Delay"
field count 45458
field mean 0.00056916162383159
field stddev 0.0001972487220884
field sum 25.872949096136
field sqrsum 0.01649448787299
field min 5.3180378e-005
field max 0.001180418396
statistic Basic.rack[14].node[9].app 	hops
field count 45458
field mean 6.3000131989969
field stddev 0.74992457683073
field sum 286386
field sqrsum 1829800
field min 5
field max 7
statistic Basic.rack[14].eps.queue[0] 	dropsum
field count 0
field mean nan
field stddev nan
field sum 0
field sqrsum 0
field min nan
field max nan
statistic Basic.rack[14].eps.queue[1] 	dropsum
field count 1874473
field mean 937237
field stddev 541113.8899085
field sum 1756825451101
field sqrsum 2.1954151681462e+018
field min 1
field max 1874473
statistic Basic.rack[14].eps.queue[2] 	dropsum
field count 0
field mean nan
field stddev nan
field sum 0
field sqrsum 0
field min nan
field max nan
statistic Basic.rack[14].eps.queue[3] 	dropsum
field count 0
field mean nan
field stddev nan
field sum 0
field sqrsum 0
field min nan
field max nan
statistic Basic.rack[15].node[0].app 	throughput
field count 40489
field mean 20245
field stddev 11688.311861285
field sum 819699805
field sqrsum 22126156836365
field min 1
field max 40489
statistic Basic.rack[15].node[0].app 	"End-to-End Delay"
field count 40489
field mean 0.00078942782513713
field stddev 0.00032101908530479
field sum 31.963143211977
field sqrsum 0.029405014743102
field min 9.6163687e-005
field max 0.001252238271
statistic Basic.rack[15].node[0].app 	hops
field count 40489
field mean 4.3032675541505
field stddev 0.7607358739482
field sum 174235
field sqrsum 773211
field min 3
field max 5
statistic Basic.rack[15].node[1].app 	throughput
field count 40289
field mean 20145
field stddev 11630.576834362
field sum 811621905
field sqrsum 21799893827665
field min 1
field max 40289
statistic Basic.rack[15].node[1].app 	"End-to-End Delay"
field count 40289
field mean 0.00079281422960433
field stddev 0.00032213304623781
field sum 31.941692496529
field sqrsum 0.029504501981482
field min 0.000189922313
field max 0.001252105092
statistic Basic.rack[15].node[1].app 	hops
field count 40289
field mean 4.3047481942962
field stddev 0.76228197560117
field sum 173434
field sqrsum 770000
field min 3
field max 5
statistic Basic.rack[15].node[2].app 	throughput
field count 39951
field mean 19976
field stddev 11533.004638861
field sum 798061176
field sqrsum 21255827381976
field min 1
field max 39951
statistic Basic.rack[15].node[2].app 	"End-to-End Delay"
field count 39951
field mean 0.00079081304869047
field stddev 0.0003224447057967
field sum 31.593772108233
field sqrsum 0.029138392242982
field min 0.000387524941
field max 0.001251782219
statistic Basic.rack[15].node[2].app 	hops
field count 39951
field mean 4.3096292958875
field stddev 0.76073684078198
field sum 172174
field sqrsum 765126
field min 3
field max 5
statistic Basic.rack[15].node[3].app 	throughput
field count 40543
field mean 20272
field stddev 11703.900318555
field sum 821887696
field sqrsum 22214802535184
field min 1
field max 40543
statistic Basic.rack[15].node[3].app 	"End-to-End Delay"
field count 40543
field mean 0.00079175683377217
field stddev 0.00032176260661385
field sum 32.100197311625
field sqrsum 0.02961291148437
field min 4.9406609e-005
field max 0.001251830994
statistic Basic.rack[15].node[3].app 	hops
field count 40543
field mean 4.309375231236
field stddev 0.75969887625375
field sum 174715
field sqrsum 776311
field min 3
field max 5
statistic Basic.rack[15].node[4].app 	throughput
field count 40429
field mean 20215
field stddev 11670.991353208
field sum 817272235
field sqrsum 22027938549955
field min 1
field max 40429
statistic Basic.rack[15].node[4].app 	"End-to-End Delay"
field count 40429
field mean 0.00079204965271615
field stddev 0.00032247728023293
field sum 32.021775409661
field sqrsum 0.029567008346436
field min 0.000158730925
field max 0.001251904161
statistic Basic.rack[15].node[4].app 	hops
field count 40429
field mean 4.3085656335799
field stddev 0.76182741887808
field sum 174191
field sqrsum 773977
field min 3
field max 5
statistic Basic.rack[15].node[5].app 	throughput
field count 40368
field mean 20184.5
field stddev 11653.382169997
field sum 814807896
field sqrsum 21928381699784
field min 1
field max 40368
statistic Basic.rack[15].node[5].app 	"End-to-End Delay"
field count 40368
field mean 0.00079292092510298
field stddev 0.00032132733221082
field sum 32.008631904557
field sqrsum 0.029548257408445
field min 2.6913219e-005
field max 0.001251481648
statistic Basic.rack[15].node[5].app 	hops
field count 40368
field mean 4.3128468093539
field stddev 0.7569638162792
field sum 174101
field sqrsum 774001
field min 3
field max 5
statistic Basic.rack[15].node[6].app 	throughput
field count 40292
field mean 20146.5
field stddev 11631.442859766
field sum 811742778
field sqrsum 21804763921710
field min 1
field max 40292
statistic Basic.rack[15].node[6].app 	"End-to-End Delay"
field count 40292
field mean 0.00079194364906881
field stddev 0.00032152118674363
field sum 31.908993508281
field sqrsum 0.029435242077258
field min 0.000165309
field max 0.001251331463
statistic Basic.rack[15].node[6].app 	hops
field count 40292
field mean 4.3087957907277
field stddev 0.75963874512895
field sum 173610
field sqrsum 771300
field min 3
field max 5
statistic Basic.rack[15].node[7].app 	throughput
field count 40661
field mean 20331
field stddev 11737.96398444
field sum 826678791
field sqrsum 22409333106831
field min 1
field max 40661
statistic Basic.rack[15].node[7].app 	"End-to-End Delay"
field count 40661
field mean 0.00079067179175746
field stddev 0.00032219069487971
field sum 32.14950572465
field sqrsum 0.029640493567061
field min 0.000300773948
field max 0.001252367851
statistic Basic.rack[15].node[7].app 	hops
field count 40661
field mean 4.3054769926957
field stddev 0.76315597401323
field sum 175065
field sqrsum 777419
field min 3
field max 5
statistic Basic.rack[15].node[8].app 	throughput
field count 40649
field mean 20325
field stddev 11734.499882824
field sum 826190925
field sqrsum 22389498670525
field min 1
field max 40649
statistic Basic.rack[15].node[8].app 	"End-to-End Delay"
field count 40649
field mean 0.00079277214861195
field stddev 0.00032332159363962
field sum 32.225395068927
field sqrsum 0.029796609685897
field min 4.5281717e-005
field max 0.001251141898
statistic Basic.rack[15].node[8].app 	hops
field count 40649
field mean 4.3118157888263
field stddev 0.76259248984337
field sum 175271
field sqrsum 779375
field min 3
field max 5
statistic Basic.rack[15].node[9].app 	throughput
field count 40201
field mean 20101
field stddev 11605.173422516
field sum 808080301
field sqrsum 21657360147101
field min 1
field max 40201
statistic Basic.rack[15].node[9].app 	"End-to-End Delay"
field count 40201
field mean 0.00079041346459469
field stddev 0.00032269221716239
field sum 31.775411690171
field sqrsum 0.029301749977041
field min 7.4139154e-005
field max 0.001250765691
statistic Basic.rack[15].node[9].app 	hops
field count 40201
field mean 4.3099674137459
field stddev 0.76256467073132
field sum 173265
field sqrsum 770143
field min 3
field max 5
statistic Basic.rack[15].eps.queue[0] 	dropsum
field count 0
field mean nan
field stddev nan
field sum 0
field sqrsum 0
field min nan
field max nan
statistic Basic.rack[15].eps.queue[1] 	dropsum
field count 0
field mean nan
field stddev nan
field sum 0
field sqrsum 0
field min nan
field max nan
statistic Basic.rack[15].eps.queue[2] 	dropsum
field count 0
field mean nan
field stddev nan
field sum 0
field sqrsum 0
field min nan
field max nan
statistic Basic.rack[15].eps.queue[3] 	dropsum
field count 0
field mean nan
field stddev nan
field sum 0
field sqrsum 0
field min nan
field max nan
