version 2
run Basic-22-20180510-16:21:43-860
attr configname Basic
attr datetime 20180510-16:21:43
attr experiment Basic
attr inifile omnetpp.ini
attr iterationvars "$0=exponential(0.25 ms), $1=5, $2=4"
attr iterationvarsf exponential(0.25_ms),5,4-
attr measurement "$0=exponential(0.25 ms), $1=5, $2=4"
attr network Networks.Basic
attr processid 860
attr repetition 0
attr replication #0
attr resultdir results
attr runnumber 22
attr seedset 22
param **.frameCapacity 50
param **.packetLength "1024 bytes"
param **.pattern 5
param **.sendIaTime "exponential(0.25 ms)"
param **.tp 4

statistic Basic.rack[0].node[0].app 	throughput
field count 40103
field mean 20052
field stddev 11576.883259323
field sum 804145356
field sqrsum 21499362189564
field min 1
field max 40103
statistic Basic.rack[0].node[0].app 	"End-to-End Delay"
field count 40103
field mean 1.7812216188292e-005
field stddev 8.5746851537851e-006
field sum 0.71432330579908
field sqrsum 1.567218974369e-005
field min 8.992e-006
field max 9.6284059e-005
statistic Basic.rack[0].node[0].app 	hops
field count 40103
field mean 4.5034785427524
field stddev 1.5000146687169
field sum 180603
field sqrsum 903573
field min 3
field max 6
statistic Basic.rack[0].node[1].app 	throughput
field count 39951
field mean 19976
field stddev 11533.004638861
field sum 798061176
field sqrsum 21255827381976
field min 1
field max 39951
statistic Basic.rack[0].node[1].app 	"End-to-End Delay"
field count 39951
field mean 1.7885062650149e-005
field stddev 8.7281884055877e-006
field sum 0.7145261379361
field sqrsum 1.5822786592251e-005
field min 8.992e-006
field max 8.8032605e-005
statistic Basic.rack[0].node[1].app 	hops
field count 39951
field mean 4.499286626117
field stddev 1.5000186037131
field sum 179751
field sqrsum 898641
field min 3
field max 6
statistic Basic.rack[0].node[2].app 	throughput
field count 39683
field mean 19842
field stddev 11455.639702784
field sum 787390086
field sqrsum 20830929651854
field min 1
field max 39683
statistic Basic.rack[0].node[2].app 	"End-to-End Delay"
field count 39683
field mean 1.7800464077895e-005
field stddev 8.5988100045828e-006
field sum 0.70637581600309
field sqrsum 1.5507885906402e-005
field min 8.992e-006
field max 0.000112060158
statistic Basic.rack[0].node[2].app 	hops
field count 39683
field mean 4.4917974951491
field stddev 1.4999964726591
field sum 178248
field sqrsum 889938
field min 3
field max 6
statistic Basic.rack[0].node[3].app 	throughput
field count 40099
field mean 20050
field stddev 11575.728558785
field sum 803984950
field sqrsum 21492929668350
field min 1
field max 40099
statistic Basic.rack[0].node[3].app 	"End-to-End Delay"
field count 40099
field mean 1.7906721055665e-005
field stddev 8.7587782292827e-006
field sum 0.71804160761109
field sqrsum 1.5933936803858e-005
field min 8.992e-006
field max 0.000105699936
statistic Basic.rack[0].node[3].app 	hops
field count 40099
field mean 4.5050500012469
field stddev 1.5000102030905
field sum 180648
field sqrsum 904050
field min 3
field max 6
statistic Basic.rack[0].node[4].app 	throughput
field count 39743
field mean 19872
field stddev 11472.960210861
field sum 789772896
field sqrsum 20925559394784
field min 1
field max 39743
statistic Basic.rack[0].node[4].app 	"End-to-End Delay"
field count 39743
field mean 1.7828856031429e-005
field stddev 8.6226874787425e-006
field sum 0.70857222525708
field sqrsum 1.5587879275466e-005
field min 8.992e-006
field max 0.000114153686
statistic Basic.rack[0].node[4].app 	hops
field count 39743
field mean 4.5052462068792
field stddev 1.5000096972315
field sum 179052
field sqrsum 896094
field min 3
field max 6
statistic Basic.rack[0].node[5].app 	throughput
field count 40410
field mean 20205.5
field stddev 11665.506525651
field sum 816504255
field sqrsum 21996896797785
field min 1
field max 40410
statistic Basic.rack[0].node[5].app 	"End-to-End Delay"
field count 40410
field mean 1.7806481871049e-005
field stddev 8.630247055227e-006
field sum 0.71955993240909
field sqrsum 1.5822540257118e-005
field min 8.992e-006
field max 0.000109139637
statistic Basic.rack[0].node[5].app 	hops
field count 40410
field mean 4.4916109873794
field stddev 1.4999951011223
field sum 181506
field sqrsum 906174
field min 3
field max 6
statistic Basic.rack[0].node[6].app 	throughput
field count 39654
field mean 19827.5
field stddev 11447.26812388
field sum 786239685
field sqrsum 20785294392555
field min 1
field max 39654
statistic Basic.rack[0].node[6].app 	"End-to-End Delay"
field count 39654
field mean 1.7793538808546e-005
field stddev 8.5936002907748e-006
field sum 0.70558498791409
field sqrsum 1.5483226565294e-005
field min 8.992e-006
field max 8.0411772e-005
statistic Basic.rack[0].node[6].app 	hops
field count 39654
field mean 4.4940989559691
field stddev 1.5000073063289
field sum 178209
field sqrsum 890109
field min 3
field max 6
statistic Basic.rack[0].node[7].app 	throughput
field count 39624
field mean 19812.5
field stddev 11438.607869842
field sum 785050500
field sqrsum 20738155691500
field min 1
field max 39624
statistic Basic.rack[0].node[7].app 	"End-to-End Delay"
field count 39624
field mean 1.7821665429893e-005
field stddev 8.5416146463007e-006
field sum 0.70616567099408
field sqrsum 1.547590994602e-005
field min 8.992e-006
field max 8.4272693e-005
statistic Basic.rack[0].node[7].app 	hops
field count 39624
field mean 4.5024984857662
field stddev 1.5000168474427
field sum 178407
field sqrsum 892431
field min 3
field max 6
statistic Basic.rack[0].node[8].app 	throughput
field count 40023
field mean 20012
field stddev 11553.789248554
field sum 800940276
field sqrsum 21370955424324
field min 1
field max 40023
statistic Basic.rack[0].node[8].app 	"End-to-End Delay"
field count 40023
field mean 1.7922739349076e-005
field stddev 8.6557928854396e-006
field sum 0.71732179696809
field sqrsum 1.5854929916006e-005
field min 8.992e-006
field max 8.874026e-005
statistic Basic.rack[0].node[8].app 	hops
field count 40023
field mean 4.5176523498988
field stddev 1.4999148661963
field sum 180810
field sqrsum 906876
field min 3
field max 6
statistic Basic.rack[0].node[9].app 	throughput
field count 40252
field mean 20126.5
field stddev 11619.895854381
field sum 810131878
field sqrsum 21739888946130
field min 1
field max 40252
statistic Basic.rack[0].node[9].app 	"End-to-End Delay"
field count 40252
field mean 1.7730753865872e-005
field stddev 8.5061251724494e-006
field sum 0.71369830460909
field sqrsum 1.5566736487017e-005
field min 8.992e-006
field max 8.0766894e-005
statistic Basic.rack[0].node[9].app 	hops
field count 40252
field mean 4.4959753552619
field stddev 1.5000132336298
field sum 180972
field sqrsum 904212
field min 3
field max 6
statistic Basic.rack[0].eps.queue[0] 	dropsum
field count 0
field mean nan
field stddev nan
field sum 0
field sqrsum 0
field min nan
field max nan
statistic Basic.rack[0].eps.queue[1] 	dropsum
field count 0
field mean nan
field stddev nan
field sum 0
field sqrsum 0
field min nan
field max nan
statistic Basic.rack[0].eps.queue[2] 	dropsum
field count 0
field mean nan
field stddev nan
field sum 0
field sqrsum 0
field min nan
field max nan
statistic Basic.rack[0].eps.queue[3] 	dropsum
field count 0
field mean nan
field stddev nan
field sum 0
field sqrsum 0
field min nan
field max nan
statistic Basic.rack[1].node[0].app 	throughput
field count 40046
field mean 20023.5
field stddev 11560.42877665
field sum 801861081
field sqrsum 21407819853511
field min 1
field max 40046
statistic Basic.rack[1].node[0].app 	"End-to-End Delay"
field count 40046
field mean 1.6629440854794e-005
field stddev 7.9664510456967e-006
field sum 0.66594258847108
field sqrsum 1.361568247361e-005
field min 8.992e-006
field max 9.0819346e-005
statistic Basic.rack[1].node[0].app 	hops
field count 40046
field mean 4.5097388003796
field stddev 1.4999871133408
field sum 180597
field sqrsum 904545
field min 3
field max 6
statistic Basic.rack[1].node[1].app 	throughput
field count 39971
field mean 19986
field stddev 11538.778141554
field sum 798860406
field sqrsum 21287765812286
field min 1
field max 39971
statistic Basic.rack[1].node[1].app 	"End-to-End Delay"
field count 39971
field mean 1.6603064754499e-005
field stddev 7.9907588021892e-006
field sum 0.66364110130209
field sqrsum 1.3570649661269e-005
field min 8.992e-006
field max 8.2446194e-005
statistic Basic.rack[1].node[1].app 	hops
field count 39971
field mean 4.4950839358535
field stddev 1.5000107079377
field sum 179673
field sqrsum 897579
field min 3
field max 6
statistic Basic.rack[1].node[2].app 	throughput
field count 39959
field mean 19980
field stddev 11535.314039938
field sum 798380820
field sqrsum 21268598917860
field min 1
field max 39959
statistic Basic.rack[1].node[2].app 	"End-to-End Delay"
field count 39959
field mean 1.6600938642911e-005
field stddev 7.9859781121798e-006
field sum 0.66335690723209
field sqrsum 1.3560702586091e-005
field min 8.992e-006
field max 8.6988436e-005
statistic Basic.rack[1].node[2].app 	hops
field count 39959
field mean 4.4992867689382
field stddev 1.5000186000224
field sum 179787
field sqrsum 898821
field min 3
field max 6
statistic Basic.rack[1].node[3].app 	throughput
field count 39598
field mean 19799.5
field stddev 11431.102316341
field sum 784020601
field sqrsum 20697359845799
field min 1
field max 39598
statistic Basic.rack[1].node[3].app 	"End-to-End Delay"
field count 39598
field mean 1.6653646759662e-005
field stddev 7.9989185288689e-006
field sum 0.6594511043891
field sqrsum 1.3515788625879e-005
field min 8.992e-006
field max 7.8419541e-005
statistic Basic.rack[1].node[3].app 	hops
field count 39598
field mean 4.5054548209506
field stddev 1.500009022194
field sum 178407
field sqrsum 892899
field min 3
field max 6
statistic Basic.rack[1].node[4].app 	throughput
field count 40036
field mean 20018.5
field stddev 11557.542025304
field sum 801460666
field sqrsum 21391786636206
field min 1
field max 40036
statistic Basic.rack[1].node[4].app 	"End-to-End Delay"
field count 40036
field mean 1.6556169220279e-005
field stddev 7.96623758692e-006
field sum 0.66284279090309
field sqrsum 1.3514796197229e-005
field min 8.992e-006
field max 0.000104323323
statistic Basic.rack[1].node[4].app 	hops
field count 40036
field mean 4.4937056649016
field stddev 1.5000055270499
field sum 179910
field sqrsum 898542
field min 3
field max 6
statistic Basic.rack[1].node[5].app 	throughput
field count 40206
field mean 20103.5
field stddev 11606.616798189
field sum 808281321
field sqrsum 21665441955191
field min 1
field max 40206
statistic Basic.rack[1].node[5].app 	"End-to-End Delay"
field count 40206
field mean 1.6699777045593e-005
field stddev 8.0645819499821e-006
field sum 0.67143123589509
field sqrsum 1.382758390583e-005
field min 8.992e-006
field max 8.030092e-005
statistic Basic.rack[1].node[5].app 	hops
field count 40206
field mean 4.5032830920758
field stddev 1.5000150613334
field sum 181059
field sqrsum 905823
field min 3
field max 6
statistic Basic.rack[1].node[6].app 	throughput
field count 39947
field mean 19974
field stddev 11531.849938323
field sum 797901378
field sqrsum 21249443531770
field min 1
field max 39947
statistic Basic.rack[1].node[6].app 	"End-to-End Delay"
field count 39947
field mean 1.6592778271462e-005
field stddev 7.9581055286196e-006
field sum 0.66283171361009
field sqrsum 1.3528057501457e-005
field min 8.992e-006
field max 7.1909668e-005
statistic Basic.rack[1].node[6].app 	hops
field count 39947
field mean 4.5029664305204
field stddev 1.500015841953
field sum 179880
field sqrsum 899874
field min 3
field max 6
statistic Basic.rack[1].node[7].app 	throughput
field count 40377
field mean 20189
field stddev 11655.980246208
field sum 815171253
field sqrsum 21943051512005
field min 1
field max 40377
statistic Basic.rack[1].node[7].app 	"End-to-End Delay"
field count 40377
field mean 1.6624997867799e-005
field stddev 8.0649560867449e-006
field sum 0.6712675389081
field sqrsum 1.3786018432587e-005
field min 8.992e-006
field max 9.0284728e-005
statistic Basic.rack[1].node[7].app 	hops
field count 40377
field mean 4.4923099784531
field stddev 1.4999988627589
field sum 181386
field sqrsum 905688
field min 3
field max 6
statistic Basic.rack[1].node[8].app 	throughput
field count 40020
field mean 20010.5
field stddev 11552.92322315
field sum 800820210
field sqrsum 21366150142870
field min 1
field max 40020
statistic Basic.rack[1].node[8].app 	"End-to-End Delay"
field count 40020
field mean 1.6598525759897e-005
field stddev 7.9723349320648e-006
field sum 0.66427300091109
field sqrsum 1.3569485092349e-005
field min 8.992e-006
field max 7.8354913e-005
statistic Basic.rack[1].node[8].app 	hops
field count 40020
field mean 4.4981259370315
field stddev 1.5000175702618
field sum 180015
field sqrsum 899775
field min 3
field max 6
statistic Basic.rack[1].node[9].app 	throughput
field count 39920
field mean 19960.5
field stddev 11524.055709688
field sum 796823160
field sqrsum 21206385972520
field min 1
field max 39920
statistic Basic.rack[1].node[9].app 	"End-to-End Delay"
field count 39920
field mean 1.6685837478334e-005
field stddev 8.0214337920414e-006
field sum 0.66609863213509
field sqrsum 1.3682937708144e-005
field min 8.992e-006
field max 8.5970981e-005
statistic Basic.rack[1].node[9].app 	hops
field count 39920
field mean 4.5146543086172
field stddev 1.499947202403
field sum 180225
field sqrsum 903465
field min 3
field max 6
statistic Basic.rack[1].eps.queue[0] 	dropsum
field count 0
field mean nan
field stddev nan
field sum 0
field sqrsum 0
field min nan
field max nan
statistic Basic.rack[1].eps.queue[1] 	dropsum
field count 0
field mean nan
field stddev nan
field sum 0
field sqrsum 0
field min nan
field max nan
statistic Basic.rack[1].eps.queue[2] 	dropsum
field count 0
field mean nan
field stddev nan
field sum 0
field sqrsum 0
field min nan
field max nan
statistic Basic.rack[1].eps.queue[3] 	dropsum
field count 0
field mean nan
field stddev nan
field sum 0
field sqrsum 0
field min nan
field max nan
statistic Basic.rack[2].node[0].app 	throughput
field count 40227
field mean 20114
field stddev 11612.678976016
field sum 809125878
field sqrsum 21699407504830
field min 1
field max 40227
statistic Basic.rack[2].node[0].app 	"End-to-End Delay"
field count 40227
field mean 1.8409107622843e-005
field stddev 9.9969535450363e-006
field sum 0.74054317234412
field sqrsum 1.765288839843e-005
field min 8.992e-006
field max 8.4728245e-005
statistic Basic.rack[2].node[0].app 	hops
field count 40227
field mean 4.7420886469287
field stddev 1.0928318955943
field sum 190760
field sqrsum 952642
field min 3
field max 6
statistic Basic.rack[2].node[1].app 	throughput
field count 39719
field mean 19860
field stddev 11466.03200763
field sum 788819340
field sqrsum 20887673183420
field min 1
field max 39719
statistic Basic.rack[2].node[1].app 	"End-to-End Delay"
field count 39719
field mean 1.843287542884e-005
field stddev 9.9891980192289e-006
field sum 0.73213537915812
field sqrsum 1.745858421403e-005
field min 8.992e-006
field max 0.000101337344
statistic Basic.rack[2].node[1].app 	hops
field count 39719
field mean 4.7532415216899
field stddev 1.0897639567799
field sum 188794
field sqrsum 944552
field min 3
field max 6
statistic Basic.rack[2].node[2].app 	throughput
field count 40120
field mean 20060.5
field stddev 11581.790736612
field sum 804827260
field sqrsum 21526714723220
field min 1
field max 40120
statistic Basic.rack[2].node[2].app 	"End-to-End Delay"
field count 40120
field mean 1.8495820673084e-005
field stddev 1.0059490455073e-005
field sum 0.74205232540412
field sqrsum 1.7784642677785e-005
field min 8.992e-006
field max 9.0116116e-005
statistic Basic.rack[2].node[2].app 	hops
field count 40120
field mean 4.7495762711864
field stddev 1.0877292558292
field sum 190553
field sqrsum 952513
field min 3
field max 6
statistic Basic.rack[2].node[3].app 	throughput
field count 40376
field mean 20188.5
field stddev 11655.691571074
field sum 815130876
field sqrsum 21941421209876
field min 1
field max 40376
statistic Basic.rack[2].node[3].app 	"End-to-End Delay"
field count 40376
field mean 1.8545960938803e-005
field stddev 1.0067718419498e-005
field sum 0.74881171886512
field sqrsum 1.7979800663378e-005
field min 8.992e-006
field max 9.178944e-005
statistic Basic.rack[2].node[3].app 	hops
field count 40376
field mean 4.7574796909055
field stddev 1.0887234110836
field sum 192088
field sqrsum 961712
field min 3
field max 6
statistic Basic.rack[2].node[4].app 	throughput
field count 40488
field mean 20244.5
field stddev 11688.023186151
field sum 819659316
field sqrsum 22124517477244
field min 1
field max 40488
statistic Basic.rack[2].node[4].app 	"End-to-End Delay"
field count 40488
field mean 1.8530293986246e-005
field stddev 1.0014762500131e-005
field sum 0.75025454291513
field sqrsum 1.7963099854979e-005
field min 8.992e-006
field max 8.5795928e-005
statistic Basic.rack[2].node[4].app 	hops
field count 40488
field mean 4.750815056313
field stddev 1.0876450008008
field sum 192351
field sqrsum 961719
field min 3
field max 6
statistic Basic.rack[2].node[5].app 	throughput
field count 39877
field mean 19939
field stddev 11511.6426789
field sum 795107503
field sqrsum 21137932967255
field min 1
field max 39877
statistic Basic.rack[2].node[5].app 	"End-to-End Delay"
field count 39877
field mean 1.8494109646767e-005
field stddev 1.0027018121455e-005
field sum 0.73748961038411
field sqrsum 1.7648390318656e-005
field min 8.992e-006
field max 9.7991306e-005
statistic Basic.rack[2].node[5].app 	hops
field count 39877
field mean 4.7446146901723
field stddev 1.0873103770643
field sum 189201
field sqrsum 944829
field min 3
field max 6
statistic Basic.rack[2].node[6].app 	throughput
field count 40062
field mean 20031.5
field stddev 11565.047578804
field sum 802501953
field sqrsum 21433489661375
field min 1
field max 40062
statistic Basic.rack[2].node[6].app 	"End-to-End Delay"
field count 40062
field mean 1.8513713457694e-005
field stddev 1.0013543684998e-005
field sum 0.74169638854212
field sqrsum 1.7748513229815e-005
field min 8.992e-006
field max 0.000105946581
statistic Basic.rack[2].node[6].app 	hops
field count 40062
field mean 4.7542559033498
field stddev 1.0900821567989
field sum 190465
field sqrsum 953123
field min 3
field max 6
statistic Basic.rack[2].node[7].app 	throughput
field count 39609
field mean 19805
field stddev 11434.277742822
field sum 784456245
field sqrsum 20714613090885
field min 1
field max 39609
statistic Basic.rack[2].node[7].app 	"End-to-End Delay"
field count 39609
field mean 1.8497328803962e-005
field stddev 1.0036249108957e-005
field sum 0.73266069659612
field sqrsum 1.7541832945658e-005
field min 8.992e-006
field max 8.4913593e-005
statistic Basic.rack[2].node[7].app 	hops
field count 39609
field mean 4.7539448105229
field stddev 1.089648811082
field sum 188299
field sqrsum 942191
field min 3
field max 6
statistic Basic.rack[2].node[8].app 	throughput
field count 39707
field mean 19854
field stddev 11462.567906015
field sum 788342778
field sqrsum 20868747238290
field min 1
field max 39707
statistic Basic.rack[2].node[8].app 	"End-to-End Delay"
field count 39707
field mean 1.8445431773821e-005
field stddev 1.0003821275078e-005
field sum 0.73241275944311
field sqrsum 1.7483304715342e-005
field min 8.992e-006
field max 9.1299013e-005
statistic Basic.rack[2].node[8].app 	hops
field count 39707
field mean 4.746165663485
field stddev 1.093551381759
field sum 188456
field sqrsum 941926
field min 3
field max 6
statistic Basic.rack[2].node[9].app 	throughput
field count 40202
field mean 20101.5
field stddev 11605.46209765
field sum 808120503
field sqrsum 21658976347905
field min 1
field max 40202
statistic Basic.rack[2].node[9].app 	"End-to-End Delay"
field count 40202
field mean 1.8497477076616e-005
field stddev 1.0050140246924e-005
field sum 0.74363557343412
field sqrsum 1.7815896801383e-005
field min 8.992e-006
field max 8.5080174e-005
statistic Basic.rack[2].node[9].app 	hops
field count 40202
field mean 4.7525247500124
field stddev 1.0904798294778
field sum 191061
field sqrsum 955827
field min 3
field max 6
statistic Basic.rack[2].eps.queue[0] 	dropsum
field count 0
field mean nan
field stddev nan
field sum 0
field sqrsum 0
field min nan
field max nan
statistic Basic.rack[2].eps.queue[1] 	dropsum
field count 0
field mean nan
field stddev nan
field sum 0
field sqrsum 0
field min nan
field max nan
statistic Basic.rack[2].eps.queue[2] 	dropsum
field count 0
field mean nan
field stddev nan
field sum 0
field sqrsum 0
field min nan
field max nan
statistic Basic.rack[2].eps.queue[3] 	dropsum
field count 0
field mean nan
field stddev nan
field sum 0
field sqrsum 0
field min nan
field max nan
statistic Basic.rack[3].node[0].app 	throughput
field count 39762
field mean 19881.5
field stddev 11478.445038419
field sum 790528203
field sqrsum 20955585114525
field min 1
field max 39762
statistic Basic.rack[3].node[0].app 	"End-to-End Delay"
field count 39762
field mean 1.7694134260276e-005
field stddev 8.9176989357595e-006
field sum 0.70355416645709
field sqrsum 1.5610789493342e-005
field min 8.992e-006
field max 7.3300911e-005
statistic Basic.rack[3].node[0].app 	hops
field count 39762
field mean 4.7487802424425
field stddev 1.0883781206325
field sum 188821
field sqrsum 943769
field min 3
field max 6
statistic Basic.rack[3].node[1].app 	throughput
field count 39746
field mean 19873.5
field stddev 11473.826236265
field sum 789892131
field sqrsum 20930298389861
field min 1
field max 39746
statistic Basic.rack[3].node[1].app 	"End-to-End Delay"
field count 39746
field mean 1.7675007101648e-005
field stddev 8.8806453256448e-006
field sum 0.70251083226209
field sqrsum 1.5551407610556e-005
field min 8.992e-006
field max 7.4082e-005
statistic Basic.rack[3].node[1].app 	hops
field count 39746
field mean 4.7541639410255
field stddev 1.0877806405921
field sum 188959
field sqrsum 945371
field min 3
field max 6
statistic Basic.rack[3].node[2].app 	throughput
field count 40097
field mean 20049
field stddev 11575.151208516
field sum 803904753
field sqrsum 21489713888945
field min 1
field max 40097
statistic Basic.rack[3].node[2].app 	"End-to-End Delay"
field count 40097
field mean 1.7617041888248e-005
field stddev 8.8635562390659e-006
field sum 0.7063905285931
field sqrsum 1.5594558712213e-005
field min 8.992e-006
field max 7.0443232e-005
statistic Basic.rack[3].node[2].app 	hops
field count 40097
field mean 4.7482105893209
field stddev 1.0910963174382
field sum 190389
field sqrsum 951741
field min 3
field max 6
statistic Basic.rack[3].node[3].app 	throughput
field count 39910
field mean 19955.5
field stddev 11521.168958342
field sum 796424005
field sqrsum 21190453501035
field min 1
field max 39910
statistic Basic.rack[3].node[3].app 	"End-to-End Delay"
field count 39910
field mean 1.7732264027239e-005
field stddev 8.9197644335552e-006
field sum 0.7076946573271
field sqrsum 1.5724276256418e-005
field min 8.992e-006
field max 7.1700394e-005
statistic Basic.rack[3].node[3].app 	hops
field count 39910
field mean 4.7482836381859
field stddev 1.0888658049165
field sum 189504
field sqrsum 947136
field min 3
field max 6
statistic Basic.rack[3].node[4].app 	throughput
field count 39966
field mean 19983.5
field stddev 11537.334765881
field sum 798660561
field sqrsum 21279778207471
field min 1
field max 39966
statistic Basic.rack[3].node[4].app 	"End-to-End Delay"
field count 39966
field mean 1.7611607314419e-005
field stddev 8.8542372434851e-006
field sum 0.70386549792809
field sqrsum 1.5529359525134e-005
field min 8.992e-006
field max 7.3394546e-005
statistic Basic.rack[3].node[4].app 	hops
field count 39966
field mean 4.7414302156833
field stddev 1.0964946462101
field sum 189496
field sqrsum 946532
field min 3
field max 6
statistic Basic.rack[3].node[5].app 	throughput
field count 40268
field mean 20134.5
field stddev 11624.514656535
field sum 810776046
field sqrsum 21765823472234
field min 1
field max 40268
statistic Basic.rack[3].node[5].app 	"End-to-End Delay"
field count 40268
field mean 1.7601412934938e-005
field stddev 8.8198659571165e-006
field sum 0.7087736960641
field sqrsum 1.5607789861386e-005
field min 8.992e-006
field max 7.2506577e-005
statistic Basic.rack[3].node[5].app 	hops
field count 40268
field mean 4.7452816131916
field stddev 1.0894887370053
field sum 191083
field sqrsum 954539
field min 3
field max 6
statistic Basic.rack[3].node[6].app 	throughput
field count 40041
field mean 20021
field stddev 11558.985400977
field sum 801660861
field sqrsum 21399802243821
field min 1
field max 40041
statistic Basic.rack[3].node[6].app 	"End-to-End Delay"
field count 40041
field mean 1.7721257500065e-005
field stddev 8.8626394627886e-006
field sum 0.70957687156009
field sqrsum 1.5719591442032e-005
field min 8.992e-006
field max 7.0806712e-005
statistic Basic.rack[3].node[6].app 	hops
field count 40041
field mean 4.765140730751
field stddev 1.0835868333337
field sum 190801
field sqrsum 956207
field min 3
field max 6
statistic Basic.rack[3].node[7].app 	throughput
field count 39795
field mean 19898
field stddev 11487.971317861
field sum 791840910
field sqrsum 21007803289270
field min 1
field max 39795
statistic Basic.rack[3].node[7].app 	"End-to-End Delay"
field count 39795
field mean 1.7687398853627e-005
field stddev 8.8992569341637e-006
field sum 0.70387003738008
field sqrsum 1.5601186516029e-005
field min 8.992e-006
field max 7.7619091e-005
statistic Basic.rack[3].node[7].app 	hops
field count 39795
field mean 4.7506721949994
field stddev 1.0905637458586
field sum 189053
field sqrsum 945457
field min 3
field max 6
statistic Basic.rack[3].node[8].app 	throughput
field count 40425
field mean 20213
field stddev 11669.83665267
field sum 817110525
field sqrsum 22021401018925
field min 1
field max 40425
statistic Basic.rack[3].node[8].app 	"End-to-End Delay"
field count 40425
field mean 1.7567929511691e-005
field stddev 8.838454082729e-006
field sum 0.7101835505101
field sqrsum 1.5634307525347e-005
field min 8.992e-006
field max 7.8829771e-005
statistic Basic.rack[3].node[8].app 	hops
field count 40425
field mean 4.7461966604824
field stddev 1.0885263494792
field sum 191865
field sqrsum 958527
field min 3
field max 6
statistic Basic.rack[3].node[9].app 	throughput
field count 39898
field mean 19949.5
field stddev 11517.704856727
field sum 795945151
field sqrsum 21171345071449
field min 1
field max 39898
statistic Basic.rack[3].node[9].app 	"End-to-End Delay"
field count 39898
field mean 1.7632446463158e-005
field stddev 8.8629105089753e-006
field sum 0.70349934898708
field sqrsum 1.5538371143668e-005
field min 8.992e-006
field max 7.207495e-005
statistic Basic.rack[3].node[9].app 	hops
field count 39898
field mean 4.7508145771718
field stddev 1.0892290827196
field sum 189548
field sqrsum 947842
field min 3
field max 6
statistic Basic.rack[3].eps.queue[0] 	dropsum
field count 0
field mean nan
field stddev nan
field sum 0
field sqrsum 0
field min nan
field max nan
statistic Basic.rack[3].eps.queue[1] 	dropsum
field count 0
field mean nan
field stddev nan
field sum 0
field sqrsum 0
field min nan
field max nan
statistic Basic.rack[3].eps.queue[2] 	dropsum
field count 0
field mean nan
field stddev nan
field sum 0
field sqrsum 0
field min nan
field max nan
statistic Basic.rack[3].eps.queue[3] 	dropsum
field count 0
field mean nan
field stddev nan
field sum 0
field sqrsum 0
field min nan
field max nan
statistic Basic.rack[4].node[0].app 	throughput
field count 39902
field mean 19951.5
field stddev 11518.859557265
field sum 796104753
field sqrsum 21177713271055
field min 1
field max 39902
statistic Basic.rack[4].node[0].app 	"End-to-End Delay"
field count 39902
field mean 1.6125798084359e-005
field stddev 7.3015111546582e-006
field sum 0.64345159516209
field sqrsum 1.2503375211858e-005
field min 8.992e-006
field max 6.7425601e-005
statistic Basic.rack[4].node[0].app 	hops
field count 39902
field mean 4.5090972883565
field stddev 1.4999912089191
field sum 179922
field sqrsum 901062
field min 3
field max 6
statistic Basic.rack[4].node[1].app 	throughput
field count 40232
field mean 20116.5
field stddev 11614.122351689
field sum 809327028
field sqrsum 21707499769340
field min 1
field max 40232
statistic Basic.rack[4].node[1].app 	"End-to-End Delay"
field count 40232
field mean 1.6163045960606e-005
field stddev 7.3940623070246e-006
field sum 0.65027166508709
field sqrsum 1.2709886374048e-005
field min 8.992e-006
field max 7.4995343e-005
statistic Basic.rack[4].node[1].app 	hops
field count 40232
field mean 4.5035792404056
field stddev 1.5000143718449
field sum 181188
field sqrsum 906516
field min 3
field max 6
statistic Basic.rack[4].node[2].app 	throughput
field count 40087
field mean 20044
field stddev 11572.264457169
field sum 803503828
field sqrsum 21473639803300
field min 1
field max 40087
statistic Basic.rack[4].node[2].app 	"End-to-End Delay"
field count 40087
field mean 1.6072227484523e-005
field stddev 7.302833217322e-006
field sum 0.64428738317209
field sqrsum 1.2492974805829e-005
field min 8.992e-006
field max 7.8344099e-005
statistic Basic.rack[4].node[2].app 	hops
field count 40087
field mean 4.4916556489635
field stddev 1.4999954997902
field sum 180057
field sqrsum 898947
field min 3
field max 6
statistic Basic.rack[4].node[3].app 	throughput
field count 39906
field mean 19953.5
field stddev 11520.014257804
field sum 796264371
field sqrsum 21184082747541
field min 1
field max 39906
statistic Basic.rack[4].node[3].app 	"End-to-End Delay"
field count 39906
field mean 1.6061404622991e-005
field stddev 7.2801437063316e-006
field sum 0.64094641288509
field sqrsum 1.2409484327619e-005
field min 8.992e-006
field max 6.7328036e-005
statistic Basic.rack[4].node[3].app 	hops
field count 39906
field mean 4.4906029168546
field stddev 1.4999893588047
field sum 179202
field sqrsum 894510
field min 3
field max 6
statistic Basic.rack[4].node[4].app 	throughput
field count 40324
field mean 20162.5
field stddev 11640.680464074
field sum 813032650
field sqrsum 21856756729950
field min 1
field max 40324
statistic Basic.rack[4].node[4].app 	"End-to-End Delay"
field count 40324
field mean 1.6107646106713e-005
field stddev 7.3468869054231e-006
field sum 0.64952472160709
field sqrsum 1.2638818730597e-005
field min 8.992e-006
field max 7.5398283e-005
statistic Basic.rack[4].node[4].app 	hops
field count 40324
field mean 4.5020087292927
field stddev 1.5000172546762
field sum 181539
field sqrsum 908019
field min 3
field max 6
statistic Basic.rack[4].node[5].app 	throughput
field count 39991
field mean 19996
field stddev 11544.551644246
field sum 799660036
field sqrsum 21319736219796
field min 1
field max 39991
statistic Basic.rack[4].node[5].app 	"End-to-End Delay"
field count 39991
field mean 1.6128786292643e-005
field stddev 7.3321995436838e-006
field sum 0.64500629262909
field sqrsum 1.2553077045659e-005
field min 8.992e-006
field max 7.7295457e-005
statistic Basic.rack[4].node[5].app 	hops
field count 39991
field mean 4.5064139431372
field stddev 1.5000050414484
field sum 180216
field sqrsum 902106
field min 3
field max 6
statistic Basic.rack[4].node[6].app 	throughput
field count 40149
field mean 20075
field stddev 11590.162315516
field sum 805991175
field sqrsum 21573428453775
field min 1
field max 40149
statistic Basic.rack[4].node[6].app 	"End-to-End Delay"
field count 40149
field mean 1.6120911282674e-005
field stddev 7.3100523406827e-006
field sum 0.64723846708809
field sqrsum 1.2579457171655e-005
field min 8.992e-006
field max 7.5456684e-005
statistic Basic.rack[4].node[6].app 	hops
field count 40149
field mean 4.508630351939
field stddev 1.4999938525915
field sum 181017
field sqrsum 906471
field min 3
field max 6
statistic Basic.rack[4].node[7].app 	throughput
field count 40404
field mean 20202.5
field stddev 11663.774474843
field sum 816261810
field sqrsum 21987100201430
field min 1
field max 40404
statistic Basic.rack[4].node[7].app 	"End-to-End Delay"
field count 40404
field mean 1.6079964163452e-005
field stddev 7.3295386938386e-006
field sum 0.6496948720601
field sqrsum 1.2617605779882e-005
field min 8.992e-006
field max 7.1373105e-005
statistic Basic.rack[4].node[7].app 	hops
field count 40404
field mean 4.4966587466587
field stddev 1.5000148414878
field sum 181683
field sqrsum 907875
field min 3
field max 6
statistic Basic.rack[4].node[8].app 	throughput
field count 39576
field mean 19788.5
field stddev 11424.75146338
field sum 783149676
field sqrsum 20662882101476
field min 1
field max 39576
statistic Basic.rack[4].node[8].app 	"End-to-End Delay"
field count 39576
field mean 1.6109477379197e-005
field stddev 7.381066014208e-006
field sum 0.63754867675909
field sqrsum 1.2426627349041e-005
field min 8.992e-006
field max 6.644232e-005
statistic Basic.rack[4].node[8].app 	hops
field count 39576
field mean 4.4915858095816
field stddev 1.4999953512212
field sum 177759
field sqrsum 887463
field min 3
field max 6
statistic Basic.rack[4].node[9].app 	throughput
field count 39820
field mean 19910.5
field stddev 11495.188196227
field sum 792836110
field sqrsum 21047420212170
field min 1
field max 39820
statistic Basic.rack[4].node[9].app 	"End-to-End Delay"
field count 39820
field mean 1.611332881183e-005
field stddev 7.2975509165487e-006
field sum 0.64163275328709
field sqrsum 1.2459370486202e-005
field min 8.992e-006
field max 7.0440768e-005
statistic Basic.rack[4].node[9].app 	hops
field count 39820
field mean 4.5034655951783
field stddev 1.5000148316056
field sum 179328
field sqrsum 897192
field min 3
field max 6
statistic Basic.rack[4].eps.queue[0] 	dropsum
field count 0
field mean nan
field stddev nan
field sum 0
field sqrsum 0
field min nan
field max nan
statistic Basic.rack[4].eps.queue[1] 	dropsum
field count 0
field mean nan
field stddev nan
field sum 0
field sqrsum 0
field min nan
field max nan
statistic Basic.rack[4].eps.queue[2] 	dropsum
field count 0
field mean nan
field stddev nan
field sum 0
field sqrsum 0
field min nan
field max nan
statistic Basic.rack[4].eps.queue[3] 	dropsum
field count 0
field mean nan
field stddev nan
field sum 0
field sqrsum 0
field min nan
field max nan
statistic Basic.rack[5].node[0].app 	throughput
field count 39985
field mean 19993
field stddev 11542.819593438
field sum 799420105
field sqrsum 21310141738985
field min 1
field max 39985
statistic Basic.rack[5].node[0].app 	"End-to-End Delay"
field count 39985
field mean 1.6776737250196e-005
field stddev 8.0668737178235e-006
field sum 0.67081783894909
field sqrsum 1.385607149874e-005
field min 8.992e-006
field max 8.1856342e-005
statistic Basic.rack[5].node[0].app 	hops
field count 39985
field mean 4.4947105164437
field stddev 1.500009431028
field sum 179721
field sqrsum 897759
field min 3
field max 6
statistic Basic.rack[5].node[1].app 	throughput
field count 39967
field mean 19984
field stddev 11537.623441015
field sum 798700528
field sqrsum 21281375568560
field min 1
field max 39967
statistic Basic.rack[5].node[1].app 	"End-to-End Delay"
field count 39967
field mean 1.6840873648412e-005
field stddev 8.1063862984984e-006
field sum 0.67307919710609
field sqrsum 1.3961547407698e-005
field min 8.992e-006
field max 8.0931111e-005
statistic Basic.rack[5].node[1].app 	hops
field count 39967
field mean 4.5047664323067
field stddev 1.5000111927608
field sum 180042
field sqrsum 900972
field min 3
field max 6
statistic Basic.rack[5].node[2].app 	throughput
field count 39547
field mean 19774
field stddev 11416.379884476
field sum 782002378
field sqrsum 20617492695970
field min 1
field max 39547
statistic Basic.rack[5].node[2].app 	"End-to-End Delay"
field count 39547
field mean 1.6836438005692e-005
field stddev 8.1316366426796e-006
field sum 0.66583061381109
field sqrsum 1.3825136355687e-005
field min 8.992e-006
field max 7.9754907e-005
statistic Basic.rack[5].node[2].app 	hops
field count 39547
field mean 4.4998862113435
field stddev 1.5000189608198
field sum 177957
field sqrsum 889767
field min 3
field max 6
statistic Basic.rack[5].node[3].app 	throughput
field count 39996
field mean 19998.5
field stddev 11545.995019919
field sum 799860006
field sqrsum 21327733819986
field min 1
field max 39996
statistic Basic.rack[5].node[3].app 	"End-to-End Delay"
field count 39996
field mean 1.6817704100862e-005
field stddev 8.0329600911227e-006
field sum 0.6726408932181
field sqrsum 1.3893090779065e-005
field min 8.992e-006
field max 7.6948825e-005
statistic Basic.rack[5].node[3].app 	hops
field count 39996
field mean 4.5010501050105
field stddev 1.5000183846487
field sum 180024
field sqrsum 900288
field min 3
field max 6
statistic Basic.rack[5].node[4].app 	throughput
field count 39929
field mean 19965
field stddev 11526.6537859
field sum 797182485
field sqrsum 21220732023205
field min 1
field max 39929
statistic Basic.rack[5].node[4].app 	"End-to-End Delay"
field count 39929
field mean 1.684717403241e-005
field stddev 8.0837206437643e-006
field sum 0.67269081194009
field sqrsum 1.3942095805775e-005
field min 8.992e-006
field max 8.0762128e-005
statistic Basic.rack[5].node[4].app 	hops
field count 39929
field mean 4.5089784367252
field stddev 1.4999919123407
field sum 180039
field sqrsum 901629
field min 3
field max 6
statistic Basic.rack[5].node[5].app 	throughput
field count 39712
field mean 19856.5
field stddev 11464.011281688
field sum 788541328
field sqrsum 20876631658800
field min 1
field max 39712
statistic Basic.rack[5].node[5].app 	"End-to-End Delay"
field count 39712
field mean 1.6791408222328e-005
field stddev 8.0258795011273e-006
field sum 0.66682040332509
field sqrsum 1.3754827413503e-005
field min 8.992e-006
field max 7.3774906e-005
statistic Basic.rack[5].node[5].app 	hops
field count 39712
field mean 4.5086120064464
field stddev 1.4999941636024
field sum 179046
field sqrsum 896598
field min 3
field max 6
statistic Basic.rack[5].node[6].app 	throughput
field count 40295
field mean 20148
field stddev 11632.30888517
field sum 811863660
field sqrsum 21809634741020
field min 1
field max 40295
statistic Basic.rack[5].node[6].app 	"End-to-End Delay"
field count 40295
field mean 1.6816857689219e-005
field stddev 8.1515008602298e-006
field sum 0.6776352805871
field sqrsum 1.4073110137885e-005
field min 8.992e-006
field max 8.5198774e-005
statistic Basic.rack[5].node[6].app 	hops
field count 40295
field mean 4.492070976548
field stddev 1.4999976562001
field sum 181008
field sqrsum 903762
field min 3
field max 6
statistic Basic.rack[5].node[7].app 	throughput
field count 39966
field mean 19983.5
field stddev 11537.334765881
field sum 798660561
field sqrsum 21279778207471
field min 1
field max 39966
statistic Basic.rack[5].node[7].app 	"End-to-End Delay"
field count 39966
field mean 1.6872842183733e-005
field stddev 8.1014216012523e-006
field sum 0.67434001071509
field sqrsum 1.4001056701304e-005
field min 8.992e-006
field max 7.8141594e-005
statistic Basic.rack[5].node[7].app 	hops
field count 39966
field mean 4.5051043386879
field stddev 1.5000100814116
field sum 180051
field sqrsum 901071
field min 3
field max 6
statistic Basic.rack[5].node[8].app 	throughput
field count 40261
field mean 20131
field stddev 11622.493930593
field sum 810494191
field sqrsum 21754474580631
field min 1
field max 40261
statistic Basic.rack[5].node[8].app 	"End-to-End Delay"
field count 40261
field mean 1.6798025761335e-005
field stddev 8.0705647980126e-006
field sum 0.6763053151771
field sqrsum 1.3982889597431e-005
field min 8.992e-006
field max 7.8776094e-005
statistic Basic.rack[5].node[8].app 	hops
field count 40261
field mean 4.4964605946201
field stddev 1.5000144529419
field sum 181032
field sqrsum 904590
field min 3
field max 6
statistic Basic.rack[5].node[9].app 	throughput
field count 40146
field mean 20073.5
field stddev 11589.296290112
field sum 805870731
field sqrsum 21568592868061
field min 1
field max 40146
statistic Basic.rack[5].node[9].app 	"End-to-End Delay"
field count 40146
field mean 1.679018102668e-005
field stddev 8.0497826884569e-006
field sum 0.67405860749709
field sqrsum 1.3918921950916e-005
field min 8.992e-006
field max 7.3305739e-005
statistic Basic.rack[5].node[9].app 	hops
field count 40146
field mean 4.4994021820356
field stddev 1.5000185630301
field sum 180633
field sqrsum 903069
field min 3
field max 6
statistic Basic.rack[5].eps.queue[0] 	dropsum
field count 0
field mean nan
field stddev nan
field sum 0
field sqrsum 0
field min nan
field max nan
statistic Basic.rack[5].eps.queue[1] 	dropsum
field count 0
field mean nan
field stddev nan
field sum 0
field sqrsum 0
field min nan
field max nan
statistic Basic.rack[5].eps.queue[2] 	dropsum
field count 0
field mean nan
field stddev nan
field sum 0
field sqrsum 0
field min nan
field max nan
statistic Basic.rack[5].eps.queue[3] 	dropsum
field count 0
field mean nan
field stddev nan
field sum 0
field sqrsum 0
field min nan
field max nan
statistic Basic.rack[6].node[0].app 	throughput
field count 40137
field mean 20069
field stddev 11586.6982139
field sum 805509453
field sqrsum 21554090446525
field min 1
field max 40137
statistic Basic.rack[6].node[0].app 	"End-to-End Delay"
field count 40137
field mean 1.8055520610188e-005
field stddev 9.3139356886175e-006
field sum 0.7246944307311
field sqrsum 1.6566509068751e-005
field min 8.992e-006
field max 8.0819067e-005
statistic Basic.rack[6].node[0].app 	hops
field count 40137
field mean 4.7530956474076
field stddev 1.0905438435347
field sum 190775
field sqrsum 954505
field min 3
field max 6
statistic Basic.rack[6].node[1].app 	throughput
field count 39948
field mean 19974.5
field stddev 11532.138613458
field sum 797941326
field sqrsum 21251039374474
field min 1
field max 39948
statistic Basic.rack[6].node[1].app 	"End-to-End Delay"
field count 39948
field mean 1.8118563938498e-005
field stddev 9.3480387419979e-006
field sum 0.7238003922151
field sqrsum 1.6605025369034e-005
field min 8.992e-006
field max 7.4714468e-005
statistic Basic.rack[6].node[1].app 	hops
field count 39948
field mean 4.7512766596576
field stddev 1.0912355041581
field sum 189804
field sqrsum 949380
field min 3
field max 6
statistic Basic.rack[6].node[2].app 	throughput
field count 40046
field mean 20023.5
field stddev 11560.42877665
field sum 801861081
field sqrsum 21407819853511
field min 1
field max 40046
statistic Basic.rack[6].node[2].app 	"End-to-End Delay"
field count 40046
field mean 1.8069946943692e-005
field stddev 9.3030146941993e-006
field sum 0.72362909530711
field sqrsum 1.6541677228839e-005
field min 8.992e-006
field max 7.8007241e-005
statistic Basic.rack[6].node[2].app 	hops
field count 40046
field mean 4.7427208709984
field stddev 1.0906503199751
field sum 189927
field sqrsum 948405
field min 3
field max 6
statistic Basic.rack[6].node[3].app 	throughput
field count 40359
field mean 20180
field stddev 11650.784093785
field sum 814444620
field sqrsum 21913718427260
field min 1
field max 40359
statistic Basic.rack[6].node[3].app 	"End-to-End Delay"
field count 40359
field mean 1.8075206048666e-005
field stddev 9.3298484950207e-006
field sum 0.72949724091811
field sqrsum 1.6698818353242e-005
field min 8.992e-006
field max 7.6134838e-005
statistic Basic.rack[6].node[3].app 	hops
field count 40359
field mean 4.7481354840308
field stddev 1.0890841548872
field sum 191630
field sqrsum 957754
field min 3
field max 6
statistic Basic.rack[6].node[4].app 	throughput
field count 39940
field mean 19970.5
field stddev 11529.829212381
field sum 797621770
field sqrsum 21238274869790
field min 1
field max 39940
statistic Basic.rack[6].node[4].app 	"End-to-End Delay"
field count 39940
field mean 1.8114383246422e-005
field stddev 9.3796139555554e-006
field sum 0.72348846686211
field sqrsum 1.6619267074681e-005
field min 8.992e-006
field max 9.0469322e-005
statistic Basic.rack[6].node[4].app 	hops
field count 39940
field mean 4.7520280420631
field stddev 1.0876839173577
field sum 189796
field sqrsum 949166
field min 3
field max 6
statistic Basic.rack[6].node[5].app 	throughput
field count 40048
field mean 20024.5
field stddev 11561.006126919
field sum 801941176
field sqrsum 21411027458024
field min 1
field max 40048
statistic Basic.rack[6].node[5].app 	"End-to-End Delay"
field count 40048
field mean 1.8098133506495e-005
field stddev 9.3609533236025e-006
field sum 0.7247940506681
field sqrsum 1.6626635868786e-005
field min 8.992e-006
field max 8.0803138e-005
statistic Basic.rack[6].node[5].app 	hops
field count 40048
field mean 4.742459049141
field stddev 1.0909146183562
field sum 189926
field sqrsum 948376
field min 3
field max 6
statistic Basic.rack[6].node[6].app 	throughput
field count 39735
field mean 19868
field stddev 11470.650809784
field sum 789454980
field sqrsum 20912925571860
field min 1
field max 39735
statistic Basic.rack[6].node[6].app 	"End-to-End Delay"
field count 39735
field mean 1.8125852245051e-005
field stddev 9.3435455678171e-006
field sum 0.72023073895709
field sqrsum 1.652364741735e-005
field min 8.992e-006
field max 0.000100041244
statistic Basic.rack[6].node[6].app 	hops
field count 39735
field mean 4.7603875676356
field stddev 1.0843711194075
field sum 189154
field sqrsum 947168
field min 3
field max 6
statistic Basic.rack[6].node[7].app 	throughput
field count 40193
field mean 20097
field stddev 11602.864021439
field sum 807758721
field sqrsum 21644433435009
field min 1
field max 40193
statistic Basic.rack[6].node[7].app 	"End-to-End Delay"
field count 40193
field mean 1.8136960518999e-005
field stddev 9.3393700333907e-006
field sum 0.72897885414011
field sqrsum 1.6727160977411e-005
field min 8.992e-006
field max 8.1365532e-005
statistic Basic.rack[6].node[7].app 	hops
field count 40193
field mean 4.750055979897
field stddev 1.0902390461262
field sum 190919
field sqrsum 954649
field min 3
field max 6
statistic Basic.rack[6].node[8].app 	throughput
field count 39717
field mean 19859
field stddev 11465.454657361
field sum 788739903
field sqrsum 20884518064935
field min 1
field max 39717
statistic Basic.rack[6].node[8].app 	"End-to-End Delay"
field count 39717
field mean 1.8092483430675e-005
field stddev 9.3361168469691e-006
field sum 0.71857916441611
field sqrsum 1.6462650422947e-005
field min 8.992e-006
field max 8.3491323e-005
statistic Basic.rack[6].node[8].app 	hops
field count 39717
field mean 4.7429564166478
field stddev 1.0926101821837
field sum 188376
field sqrsum 940872
field min 3
field max 6
statistic Basic.rack[6].node[9].app 	throughput
field count 40141
field mean 20071
field stddev 11587.852914439
field sum 805670011
field sqrsum 21560535164371
field min 1
field max 40141
statistic Basic.rack[6].node[9].app 	"End-to-End Delay"
field count 40141
field mean 1.8064917593859e-005
field stddev 9.3610856736981e-006
field sum 0.7251438571351
field sqrsum 1.661712921195e-005
field min 8.992e-006
field max 7.0016309e-005
statistic Basic.rack[6].node[9].app 	hops
field count 40141
field mean 4.7453476495354
field stddev 1.0884974498796
field sum 190483
field sqrsum 951467
field min 3
field max 6
statistic Basic.rack[6].eps.queue[0] 	dropsum
field count 0
field mean nan
field stddev nan
field sum 0
field sqrsum 0
field min nan
field max nan
statistic Basic.rack[6].eps.queue[1] 	dropsum
field count 0
field mean nan
field stddev nan
field sum 0
field sqrsum 0
field min nan
field max nan
statistic Basic.rack[6].eps.queue[2] 	dropsum
field count 0
field mean nan
field stddev nan
field sum 0
field sqrsum 0
field min nan
field max nan
statistic Basic.rack[6].eps.queue[3] 	dropsum
field count 0
field mean nan
field stddev nan
field sum 0
field sqrsum 0
field min nan
field max nan
statistic Basic.rack[7].node[0].app 	throughput
field count 39504
field mean 19752.5
field stddev 11403.966853687
field sum 780302760
field sqrsum 20550313588280
field min 1
field max 39504
statistic Basic.rack[7].node[0].app 	"End-to-End Delay"
field count 39504
field mean 1.7947088700185e-005
field stddev 9.3713717092523e-006
field sum 0.70898179201211
field sqrsum 1.6193415580543e-005
field min 8.992e-006
field max 7.0972753e-005
statistic Basic.rack[7].node[0].app 	hops
field count 39504
field mean 4.7508859862292
field stddev 1.094449466038
field sum 187679
field sqrsum 938959
field min 3
field max 6
statistic Basic.rack[7].node[1].app 	throughput
field count 39999
field mean 20000
field stddev 11546.861045323
field sum 799980000
field sqrsum 21332533340000
field min 1
field max 39999
statistic Basic.rack[7].node[1].app 	"End-to-End Delay"
field count 39999
field mean 1.7965288989578e-005
field stddev 9.436670733633e-006
field sum 0.71859359429412
field sqrsum 1.6471593667444e-005
field min 8.992e-006
field max 6.9325346e-005
statistic Basic.rack[7].node[1].app 	hops
field count 39999
field mean 4.7504937623441
field stddev 1.0892692592196
field sum 190015
field sqrsum 950123
field min 3
field max 6
statistic Basic.rack[7].node[2].app 	throughput
field count 39772
field mean 19886.5
field stddev 11481.331789765
field sum 790925878
field sqrsum 20971399655170
field min 1
field max 39772
statistic Basic.rack[7].node[2].app 	"End-to-End Delay"
field count 39772
field mean 1.7899582924472e-005
field stddev 9.4228888119009e-006
field sum 0.71190221207211
field sqrsum 1.6274052920672e-005
field min 8.992e-006
field max 7.9159644e-005
statistic Basic.rack[7].node[2].app 	hops
field count 39772
field mean 4.7396660967515
field stddev 1.0913668085449
field sum 188506
field sqrsum 940826
field min 3
field max 6
statistic Basic.rack[7].node[3].app 	throughput
field count 39870
field mean 19935.5
field stddev 11509.621952957
field sum 794828385
field sqrsum 21126803416095
field min 1
field max 39870
statistic Basic.rack[7].node[3].app 	"End-to-End Delay"
field count 39870
field mean 1.8044454289268e-005
field stddev 9.4193335506507e-006
field sum 0.71943239251311
field sqrsum 1.6519095878824e-005
field min 8.992e-006
field max 7.6328961e-005
statistic Basic.rack[7].node[3].app 	hops
field count 39870
field mean 4.7545522949586
field stddev 1.0886840021636
field sum 189564
field sqrsum 948546
field min 3
field max 6
statistic Basic.rack[7].node[4].app 	throughput
field count 40087
field mean 20044
field stddev 11572.264457169
field sum 803503828
field sqrsum 21473639803300
field min 1
field max 40087
statistic Basic.rack[7].node[4].app 	"End-to-End Delay"
field count 40087
field mean 1.7986531381174e-005
field stddev 9.4224317076103e-006
field sum 0.72102608347712
field sqrsum 1.6527682319348e-005
field min 8.992e-006
field max 7.2411459e-005
statistic Basic.rack[7].node[4].app 	hops
field count 40087
field mean 4.7455284755656
field stddev 1.0894157709657
field sum 190234
field sqrsum 950336
field min 3
field max 6
statistic Basic.rack[7].node[5].app 	throughput
field count 39929
field mean 19965
field stddev 11526.6537859
field sum 797182485
field sqrsum 21220732023205
field min 1
field max 39929
statistic Basic.rack[7].node[5].app 	"End-to-End Delay"
field count 39929
field mean 1.806118886579e-005
field stddev 9.4609511331656e-006
field sum 0.72116521022211
field sqrsum 1.6599040228088e-005
field min 8.992e-006
field max 7.61604e-005
statistic Basic.rack[7].node[5].app 	hops
field count 39929
field mean 4.7588219088883
field stddev 1.0865133661836
field sum 190015
field sqrsum 951383
field min 3
field max 6
statistic Basic.rack[7].node[6].app 	throughput
field count 40151
field mean 20076
field stddev 11590.739665785
field sum 806071476
field sqrsum 21576652579076
field min 1
field max 40151
statistic Basic.rack[7].node[6].app 	"End-to-End Delay"
field count 40151
field mean 1.7999198178952e-005
field stddev 9.4271611884606e-006
field sum 0.72268580608311
field sqrsum 1.6575950472945e-005
field min 8.992e-006
field max 7.2023396e-005
statistic Basic.rack[7].node[6].app 	hops
field count 40151
field mean 4.7551742173296
field stddev 1.0893274006066
field sum 190925
field sqrsum 955525
field min 3
field max 6
statistic Basic.rack[7].node[7].app 	throughput
field count 40160
field mean 20080.5
field stddev 11593.337741996
field sum 806432880
field sqrsum 21591165118160
field min 1
field max 40160
statistic Basic.rack[7].node[7].app 	"End-to-End Delay"
field count 40160
field mean 1.8037630163424e-005
field stddev 9.4824499959291e-006
field sum 0.72439122736312
field sqrsum 1.6677272150227e-005
field min 8.992e-006
field max 8.0405706e-005
statistic Basic.rack[7].node[7].app 	hops
field count 40160
field mean 4.7532619521912
field stddev 1.0933435423975
field sum 190891
field sqrsum 955361
field min 3
field max 6
statistic Basic.rack[7].node[8].app 	throughput
field count 39978
field mean 19989.5
field stddev 11540.798867496
field sum 799140231
field sqrsum 21298951816689
field min 1
field max 39978
statistic Basic.rack[7].node[8].app 	"End-to-End Delay"
field count 39978
field mean 1.8094486421209e-005
field stddev 9.5117990862839e-006
field sum 0.72338137814711
field sqrsum 1.6706106489149e-005
field min 8.992e-006
field max 8.1579539e-005
statistic Basic.rack[7].node[8].app 	hops
field count 39978
field mean 4.7594927209965
field stddev 1.0827451947132
field sum 190275
field sqrsum 952479
field min 3
field max 6
statistic Basic.rack[7].node[9].app 	throughput
field count 40042
field mean 20021.5
field stddev 11559.274076112
field sum 801700903
field sqrsum 21401405605585
field min 1
field max 40042
statistic Basic.rack[7].node[9].app 	"End-to-End Delay"
field count 40042
field mean 1.7963305951479e-005
field stddev 9.384623798815e-006
field sum 0.71928669690911
field sqrsum 1.6447224474936e-005
field min 8.992e-006
field max 7.1793626e-005
statistic Basic.rack[7].node[9].app 	hops
field count 40042
field mean 4.7493881424504
field stddev 1.0923048073685
field sum 190175
field sqrsum 950989
field min 3
field max 6
statistic Basic.rack[7].eps.queue[0] 	dropsum
field count 0
field mean nan
field stddev nan
field sum 0
field sqrsum 0
field min nan
field max nan
statistic Basic.rack[7].eps.queue[1] 	dropsum
field count 0
field mean nan
field stddev nan
field sum 0
field sqrsum 0
field min nan
field max nan
statistic Basic.rack[7].eps.queue[2] 	dropsum
field count 0
field mean nan
field stddev nan
field sum 0
field sqrsum 0
field min nan
field max nan
statistic Basic.rack[7].eps.queue[3] 	dropsum
field count 0
field mean nan
field stddev nan
field sum 0
field sqrsum 0
field min nan
field max nan
statistic Basic.rack[8].node[0].app 	throughput
field count 39938
field mean 19969.5
field stddev 11529.251862111
field sum 797541891
field sqrsum 21235084542469
field min 1
field max 39938
statistic Basic.rack[8].node[0].app 	"End-to-End Delay"
field count 39938
field mean 1.5588351925061e-005
field stddev 6.6257060501945e-006
field sum 0.62256759918308
field sqrsum 1.1458036360968e-005
field min 8.992e-006
field max 6.3748136e-005
statistic Basic.rack[8].node[0].app 	hops
field count 39938
field mean 4.5007511643047
field stddev 1.5000185913753
field sum 179751
field sqrsum 898875
field min 3
field max 6
statistic Basic.rack[8].node[1].app 	throughput
field count 39689
field mean 19845
field stddev 11457.371753592
field sum 787628205
field sqrsum 20840379761565
field min 1
field max 39689
statistic Basic.rack[8].node[1].app 	"End-to-End Delay"
field count 39689
field mean 1.551264678488e-005
field stddev 6.5897620857711e-006
field sum 0.61568143824509
field sqrsum 1.1274298668509e-005
field min 8.992e-006
field max 7.307405e-005
statistic Basic.rack[8].node[1].app 	hops
field count 39689
field mean 4.4896066920305
field stddev 1.4999828894447
field sum 178188
field sqrsum 889290
field min 3
field max 6
statistic Basic.rack[8].node[2].app 	throughput
field count 39886
field mean 19943.5
field stddev 11514.240755111
field sum 795466441
field sqrsum 21152248132631
field min 1
field max 39886
statistic Basic.rack[8].node[2].app 	"End-to-End Delay"
field count 39886
field mean 1.5582475559321e-005
field stddev 6.5787271576595e-006
field sum 0.62152262015909
field sqrsum 1.1411069918925e-005
field min 8.992e-006
field max 6.8954044e-005
statistic Basic.rack[8].node[2].app 	hops
field count 39886
field mean 4.5070701499273
field stddev 1.5000021413024
field sum 179769
field sqrsum 899973
field min 3
field max 6
statistic Basic.rack[8].node[3].app 	throughput
field count 39873
field mean 19937
field stddev 11510.487978361
field sum 794948001
field sqrsum 21131572745249
field min 1
field max 39873
statistic Basic.rack[8].node[3].app 	"End-to-End Delay"
field count 39873
field mean 1.5539569194018e-005
field stddev 6.5667664812793e-006
field sum 0.61960924247308
field sqrsum 1.1347837907431e-005
field min 8.992e-006
field max 6.1010202e-005
statistic Basic.rack[8].node[3].app 	hops
field count 39873
field mean 4.5003385749755
field stddev 1.5000187718632
field sum 179442
field sqrsum 897264
field min 3
field max 6
statistic Basic.rack[8].node[4].app 	throughput
field count 39874
field mean 19937.5
field stddev 11510.776653496
field sum 794987875
field sqrsum 21133162681125
field min 1
field max 39874
statistic Basic.rack[8].node[4].app 	"End-to-End Delay"
field count 39874
field mean 1.5554097883309e-005
field stddev 6.5812453826399e-006
field sum 0.62020409899908
field sqrsum 1.1373726170492e-005
field min 8.992e-006
field max 6.8229949e-005
statistic Basic.rack[8].node[4].app 	hops
field count 39874
field mean 4.4993228670311
field stddev 1.5000186567647
field sum 179406
field sqrsum 896922
field min 3
field max 6
statistic Basic.rack[8].node[5].app 	throughput
field count 39782
field mean 19891.5
field stddev 11484.218541111
field sum 791323653
field sqrsum 20987222150315
field min 1
field max 39782
statistic Basic.rack[8].node[5].app 	"End-to-End Delay"
field count 39782
field mean 1.5576397020263e-005
field stddev 6.5822549414997e-006
field sum 0.61966022626009
field sqrsum 1.1375628494944e-005
field min 8.992e-006
field max 6.8214001e-005
statistic Basic.rack[8].node[5].app 	hops
field count 39782
field mean 4.5070132220602
field stddev 1.5000024577127
field sum 179298
field sqrsum 897606
field min 3
field max 6
statistic Basic.rack[8].node[6].app 	throughput
field count 40072
field mean 20036.5
field stddev 11567.93433015
field sum 802902628
field sqrsum 21449543707020
field min 1
field max 40072
statistic Basic.rack[8].node[6].app 	"End-to-End Delay"
field count 40072
field mean 1.548864748745e-005
field stddev 6.5500203190797e-006
field sum 0.62066108211709
field sqrsum 1.1332357453704e-005
field min 8.992e-006
field max 5.979743e-005
statistic Basic.rack[8].node[6].app 	hops
field count 40072
field mean 4.4830804551807
field stddev 1.4999232887692
field sum 179646
field sqrsum 895518
field min 3
field max 6
statistic Basic.rack[8].node[7].app 	throughput
field count 40329
field mean 20165
field stddev 11642.123839747
field sum 813234285
field sqrsum 21864888064605
field min 1
field max 40329
statistic Basic.rack[8].node[7].app 	"End-to-End Delay"
field count 40329
field mean 1.5538700578816e-005
field stddev 6.5317459544427e-006
field sum 0.62666025564308
field sqrsum 1.1458027980927e-005
field min 8.992e-006
field max 7.5698145e-005
statistic Basic.rack[8].node[7].app 	hops
field count 40329
field mean 4.4983262664584
field stddev 1.5000176635787
field sum 181413
field sqrsum 906795
field min 3
field max 6
statistic Basic.rack[8].node[8].app 	throughput
field count 40096
field mean 20048.5
field stddev 11574.862533381
field sum 803864656
field sqrsum 21488106119536
field min 1
field max 40096
statistic Basic.rack[8].node[8].app 	"End-to-End Delay"
field count 40096
field mean 1.5584453395827e-005
field stddev 6.5806411830834e-006
field sum 0.62487424335908
field sqrsum 1.1474631018748e-005
field min 8.992e-006
field max 6.7109782e-005
statistic Basic.rack[8].node[8].app 	hops
field count 40096
field mean 4.5055367118915
field stddev 1.5000084869025
field sum 180654
field sqrsum 904158
field min 3
field max 6
statistic Basic.rack[8].node[9].app 	throughput
field count 39737
field mean 19869
field stddev 11471.228160053
field sum 789534453
field sqrsum 20916083550725
field min 1
field max 39737
statistic Basic.rack[8].node[9].app 	"End-to-End Delay"
field count 39737
field mean 1.5524945171832e-005
field stddev 6.5340114229797e-006
field sum 0.61691474629307
field sqrsum 1.1274028790327e-005
field min 8.992e-006
field max 6.9016882e-005
statistic Basic.rack[8].node[9].app 	hops
field count 39737
field mean 4.5001132445831
field stddev 1.5000188701786
field sum 178821
field sqrsum 894123
field min 3
field max 6
statistic Basic.rack[8].eps.queue[0] 	dropsum
field count 0
field mean nan
field stddev nan
field sum 0
field sqrsum 0
field min nan
field max nan
statistic Basic.rack[8].eps.queue[1] 	dropsum
field count 0
field mean nan
field stddev nan
field sum 0
field sqrsum 0
field min nan
field max nan
statistic Basic.rack[8].eps.queue[2] 	dropsum
field count 0
field mean nan
field stddev nan
field sum 0
field sqrsum 0
field min nan
field max nan
statistic Basic.rack[8].eps.queue[3] 	dropsum
field count 0
field mean nan
field stddev nan
field sum 0
field sqrsum 0
field min nan
field max nan
statistic Basic.rack[9].node[0].app 	throughput
field count 39691
field mean 19846
field stddev 11457.949103861
field sum 787707586
field sqrsum 20843530433146
field min 1
field max 39691
statistic Basic.rack[9].node[0].app 	"End-to-End Delay"
field count 39691
field mean 1.4173813520119e-005
field stddev 6.7431729883727e-006
field sum 0.56257283242704
field sqrsum 9.7785218779458e-006
field min 8.992e-006
field max 7.7172301e-005
statistic Basic.rack[9].node[0].app 	hops
field count 39691
field mean 4.2473104734071
field stddev 1.2982962690166
field sum 168580
field sqrsum 782912
field min 3
field max 6
statistic Basic.rack[9].node[1].app 	throughput
field count 39854
field mean 19927.5
field stddev 11505.003150804
field sum 794190585
field sqrsum 21101379113255
field min 1
field max 39854
statistic Basic.rack[9].node[1].app 	"End-to-End Delay"
field count 39854
field mean 1.416735793406e-005
field stddev 6.8217339917496e-006
field sum 0.56462588310404
field sqrsum 9.8538583709034e-006
field min 8.992e-006
field max 7.4874403e-005
statistic Basic.rack[9].node[1].app 	hops
field count 39854
field mean 4.2369649219652
field stddev 1.29722273473
field sum 168860
field sqrsum 782518
field min 3
field max 6
statistic Basic.rack[9].node[2].app 	throughput
field count 39850
field mean 19925.5
field stddev 11503.848450265
field sum 794031175
field sqrsum 21095026226225
field min 1
field max 39850
statistic Basic.rack[9].node[2].app 	"End-to-End Delay"
field count 39850
field mean 1.410659392502e-005
field stddev 6.688918709946e-006
field sum 0.56214776791204
field sqrsum 9.7128996414624e-006
field min 8.992e-006
field max 6.7853654e-005
statistic Basic.rack[9].node[2].app 	hops
field count 39850
field mean 4.2396737766625
field stddev 1.2958533905943
field sum 168951
field sqrsum 783213
field min 3
field max 6
statistic Basic.rack[9].node[3].app 	throughput
field count 40243
field mean 20122
field stddev 11617.29777817
field sum 809769646
field sqrsum 21725309832534
field min 1
field max 40243
statistic Basic.rack[9].node[3].app 	"End-to-End Delay"
field count 40243
field mean 1.4236571100913e-005
field stddev 6.804218227204e-006
field sum 0.57292233081406
field sqrsum 1.0019548892607e-005
field min 8.992e-006
field max 7.7231412e-005
statistic Basic.rack[9].node[3].app 	hops
field count 40243
field mean 4.2492855900405
field stddev 1.300403141957
field sum 171004
field sqrsum 794696
field min 3
field max 6
statistic Basic.rack[9].node[4].app 	throughput
field count 39991
field mean 19996
field stddev 11544.551644246
field sum 799660036
field sqrsum 21319736219796
field min 1
field max 39991
statistic Basic.rack[9].node[4].app 	"End-to-End Delay"
field count 39991
field mean 1.4181948690707e-005
field stddev 6.7922032842408e-006
field sum 0.56715031009005
field sqrsum 9.888196275539e-006
field min 8.992e-006
field max 8.8171261e-005
statistic Basic.rack[9].node[4].app 	hops
field count 39991
field mean 4.2481308294366
field stddev 1.2979757816577
field sum 169887
field sqrsum 789075
field min 3
field max 6
statistic Basic.rack[9].node[5].app 	throughput
field count 40081
field mean 20041
field stddev 11570.532406362
field sum 803263321
field sqrsum 21463999200441
field min 1
field max 40081
statistic Basic.rack[9].node[5].app 	"End-to-End Delay"
field count 40081
field mean 1.4174911742797e-005
field stddev 6.7703301568262e-006
field sum 0.56814463756305
field sqrsum 9.8905619015313e-006
field min 8.992e-006
field max 7.5752095e-005
statistic Basic.rack[9].node[5].app 	hops
field count 40081
field mean 4.2460018462613
field stddev 1.3002420106749
field sum 170184
field sqrsum 790362
field min 3
field max 6
statistic Basic.rack[9].node[6].app 	throughput
field count 39977
field mean 19989
field stddev 11540.510192362
field sum 799100253
field sqrsum 21297353576205
field min 1
field max 39977
statistic Basic.rack[9].node[6].app 	"End-to-End Delay"
field count 39977
field mean 1.4169308592717e-005
field stddev 6.7548704377857e-006
field sum 0.56644644961105
field sqrsum 9.8501904524477e-006
field min 8.992e-006
field max 7.2822431e-005
statistic Basic.rack[9].node[6].app 	hops
field count 39977
field mean 4.2456912724817
field stddev 1.2979912853591
field sum 169730
field sqrsum 787972
field min 3
field max 6
statistic Basic.rack[9].node[7].app 	throughput
field count 40068
field mean 20034.5
field stddev 11566.779629612
field sum 802742346
field sqrsum 21443121127134
field min 1
field max 40068
statistic Basic.rack[9].node[7].app 	"End-to-End Delay"
field count 40068
field mean 1.4199077556705e-005
field stddev 6.7881144441456e-006
field sum 0.56892863954205
field sqrsum 9.9244890447073e-006
field min 8.992e-006
field max 7.8361588e-005
statistic Basic.rack[9].node[7].app 	hops
field count 40068
field mean 4.2496755515623
field stddev 1.2979923463313
field sum 170276
field sqrsum 791122
field min 3
field max 6
statistic Basic.rack[9].node[8].app 	throughput
field count 39576
field mean 19788.5
field stddev 11424.75146338
field sum 783149676
field sqrsum 20662882101476
field min 1
field max 39576
statistic Basic.rack[9].node[8].app 	"End-to-End Delay"
field count 39576
field mean 1.4230916621817e-005
field stddev 6.7507996309565e-006
field sum 0.56320275622504
field sqrsum 9.8184546406547e-006
field min 8.992e-006
field max 7.0918574e-005
statistic Basic.rack[9].node[8].app 	hops
field count 39576
field mean 4.2504800889428
field stddev 1.3023715273133
field sum 168217
field sqrsum 782129
field min 3
field max 6
statistic Basic.rack[9].node[9].app 	throughput
field count 40181
field mean 20091
field stddev 11599.399919823
field sum 807276471
field sqrsum 21625053012991
field min 1
field max 40181
statistic Basic.rack[9].node[9].app 	"End-to-End Delay"
field count 40181
field mean 1.4208118109331e-005
field stddev 6.8095474705174e-006
field sum 0.57089639375105
field sqrsum 9.9745074493511e-006
field min 8.992e-006
field max 8.7897689e-005
statistic Basic.rack[9].node[9].app 	hops
field count 40181
field mean 4.2580572907593
field stddev 1.2989945565483
field sum 171093
field sqrsum 796323
field min 3
field max 6
statistic Basic.rack[9].eps.queue[0] 	dropsum
field count 0
field mean nan
field stddev nan
field sum 0
field sqrsum 0
field min nan
field max nan
statistic Basic.rack[9].eps.queue[1] 	dropsum
field count 0
field mean nan
field stddev nan
field sum 0
field sqrsum 0
field min nan
field max nan
statistic Basic.rack[9].eps.queue[2] 	dropsum
field count 0
field mean nan
field stddev nan
field sum 0
field sqrsum 0
field min nan
field max nan
statistic Basic.rack[9].eps.queue[3] 	dropsum
field count 0
field mean nan
field stddev nan
field sum 0
field sqrsum 0
field min nan
field max nan
statistic Basic.rack[10].node[0].app 	throughput
field count 39976
field mean 19988.5
field stddev 11540.221517227
field sum 799060276
field sqrsum 21295755415676
field min 1
field max 39976
statistic Basic.rack[10].node[0].app 	"End-to-End Delay"
field count 39976
field mean 1.9091171552383e-005
field stddev 9.4760767599164e-006
field sum 0.76318867397808
field sqrsum 1.8159762231376e-005
field min 8.992e-006
field max 8.1611707e-005
statistic Basic.rack[10].node[0].app 	hops
field count 39976
field mean 4.7562787672604
field stddev 1.0849406831316
field sum 190137
field sqrsum 951399
field min 3
field max 6
statistic Basic.rack[10].node[1].app 	throughput
field count 39938
field mean 19969.5
field stddev 11529.251862111
field sum 797541891
field sqrsum 21235084542469
field min 1
field max 39938
statistic Basic.rack[10].node[1].app 	"End-to-End Delay"
field count 39938
field mean 1.9064248572915e-005
field stddev 9.4960197344599e-006
field sum 0.76138795950508
field sqrsum 1.8116583965699e-005
field min 8.992e-006
field max 8.0501902e-005
statistic Basic.rack[10].node[1].app 	hops
field count 39938
field mean 4.7447794080825
field stddev 1.0901652340534
field sum 189497
field sqrsum 946585
field min 3
field max 6
statistic Basic.rack[10].node[2].app 	throughput
field count 40085
field mean 20043
field stddev 11571.6871069
field sum 803423655
field sqrsum 21470425948335
field min 1
field max 40085
statistic Basic.rack[10].node[2].app 	"End-to-End Delay"
field count 40085
field mean 1.8986884198705e-005
field stddev 9.4532180985314e-006
field sum 0.76108925310508
field sqrsum 1.8032753330244e-005
field min 8.992e-006
field max 8.7404755e-005
statistic Basic.rack[10].node[2].app 	hops
field count 40085
field mean 4.7446426344019
field stddev 1.0929526543194
field sum 190189
field sqrsum 950261
field min 3
field max 6
statistic Basic.rack[10].node[3].app 	throughput
field count 40112
field mean 20056.5
field stddev 11579.481335535
field sum 804506328
field sqrsum 21513840054600
field min 1
field max 40112
statistic Basic.rack[10].node[3].app 	"End-to-End Delay"
field count 40112
field mean 1.9011352951862e-005
field stddev 9.5305047083158e-006
field sum 0.76258338960509
field sqrsum 1.8141044962538e-005
field min 8.992e-006
field max 8.2191535e-005
statistic Basic.rack[10].node[3].app 	hops
field count 40112
field mean 4.7404018747507
field stddev 1.0919415664665
field sum 190147
field sqrsum 949199
field min 3
field max 6
statistic Basic.rack[10].node[4].app 	throughput
field count 39830
field mean 19915.5
field stddev 11498.074947573
field sum 793234365
field sqrsum 21063280916755
field min 1
field max 39830
statistic Basic.rack[10].node[4].app 	"End-to-End Delay"
field count 39830
field mean 1.9118518280946e-005
field stddev 9.4778708275313e-006
field sum 0.76149058313008
field sqrsum 1.8136412115218e-005
field min 8.992e-006
field max 7.9047021e-005
statistic Basic.rack[10].node[4].app 	hops
field count 39830
field mean 4.7492342455436
field stddev 1.0918701214707
field sum 189162
field sqrsum 945858
field min 3
field max 6
statistic Basic.rack[10].node[5].app 	throughput
field count 40072
field mean 20036.5
field stddev 11567.93433015
field sum 802902628
field sqrsum 21449543707020
field min 1
field max 40072
statistic Basic.rack[10].node[5].app 	"End-to-End Delay"
field count 40072
field mean 1.9084738525082e-005
field stddev 9.4517280380422e-006
field sum 0.76476364217708
field sqrsum 1.817506345721e-005
field min 8.992e-006
field max 8.6589904e-005
statistic Basic.rack[10].node[5].app 	hops
field count 40072
field mean 4.7562886803753
field stddev 1.0875883070058
field sum 190594
field sqrsum 953918
field min 3
field max 6
statistic Basic.rack[10].node[6].app 	throughput
field count 39958
field mean 19979.5
field stddev 11535.025364804
field sum 798340861
field sqrsum 21267002196179
field min 1
field max 39958
statistic Basic.rack[10].node[6].app 	"End-to-End Delay"
field count 39958
field mean 1.9105407798215e-005
field stddev 9.4892696245563e-006
field sum 0.76341388480108
field sqrsum 1.8183311120011e-005
field min 8.992e-006
field max 7.629581e-005
statistic Basic.rack[10].node[6].app 	hops
field count 39958
field mean 4.7490114620351
field stddev 1.0888160235673
field sum 189761
field sqrsum 948547
field min 3
field max 6
statistic Basic.rack[10].node[7].app 	throughput
field count 39853
field mean 19927
field stddev 11504.714475669
field sum 794150731
field sqrsum 21099790771939
field min 1
field max 39853
statistic Basic.rack[10].node[7].app 	"End-to-End Delay"
field count 39853
field mean 1.9141923171156e-005
field stddev 9.5373154110811e-006
field sum 0.76286306414008
field sqrsum 1.8227619436883e-005
field min 8.992e-006
field max 8.8455701e-005
statistic Basic.rack[10].node[7].app 	hops
field count 39853
field mean 4.7542217649863
field stddev 1.0880580752372
field sum 189470
field sqrsum 947962
field min 3
field max 6
statistic Basic.rack[10].node[8].app 	throughput
field count 40067
field mean 20034
field stddev 11566.490954477
field sum 802702278
field sqrsum 21441515682510
field min 1
field max 40067
statistic Basic.rack[10].node[8].app 	"End-to-End Delay"
field count 40067
field mean 1.9049218357029e-005
field stddev 9.5146262231623e-006
field sum 0.76324503191108
field sqrsum 1.8166320614854e-005
field min 8.992e-006
field max 8.9285525e-005
statistic Basic.rack[10].node[8].app 	hops
field count 40067
field mean 4.7481468540195
field stddev 1.0934194362608
field sum 190244
field sqrsum 951208
field min 3
field max 6
statistic Basic.rack[10].node[9].app 	throughput
field count 40001
field mean 20001
field stddev 11547.438395592
field sum 800060001
field sqrsum 21335733420001
field min 1
field max 40001
statistic Basic.rack[10].node[9].app 	"End-to-End Delay"
field count 40001
field mean 1.9100666999702e-005
field stddev 9.5385476578571e-006
field sum 0.76404578065509
field sqrsum 1.8233139685669e-005
field min 8.992e-006
field max 8.3357445e-005
statistic Basic.rack[10].node[9].app 	hops
field count 40001
field mean 4.7444563885903
field stddev 1.0907088658777
field sum 189783
field sqrsum 948003
field min 3
field max 6
statistic Basic.rack[10].eps.queue[0] 	dropsum
field count 0
field mean nan
field stddev nan
field sum 0
field sqrsum 0
field min nan
field max nan
statistic Basic.rack[10].eps.queue[1] 	dropsum
field count 0
field mean nan
field stddev nan
field sum 0
field sqrsum 0
field min nan
field max nan
statistic Basic.rack[10].eps.queue[2] 	dropsum
field count 0
field mean nan
field stddev nan
field sum 0
field sqrsum 0
field min nan
field max nan
statistic Basic.rack[10].eps.queue[3] 	dropsum
field count 0
field mean nan
field stddev nan
field sum 0
field sqrsum 0
field min nan
field max nan
statistic Basic.rack[11].node[0].app 	throughput
field count 40039
field mean 20020
field stddev 11558.408050708
field sum 801580780
field sqrsum 21396595760540
field min 1
field max 40039
statistic Basic.rack[11].node[0].app 	"End-to-End Delay"
field count 40039
field mean 2.2894381752091e-005
field stddev 1.0103999181636e-005
field sum 0.91666815097197
field sqrsum 2.5074062017215e-005
field min 8.992e-006
field max 0.000100970364
statistic Basic.rack[11].node[0].app 	hops
field count 40039
field mean 4.9883113963885
field stddev 1.2283240217591
field sum 199727
field sqrsum 1056709
field min 3
field max 6
statistic Basic.rack[11].node[1].app 	throughput
field count 39997
field mean 19999
field stddev 11546.283695054
field sum 799900003
field sqrsum 21329333579995
field min 1
field max 39997
statistic Basic.rack[11].node[1].app 	"End-to-End Delay"
field count 39997
field mean 2.2940823230817e-005
field stddev 1.0074345434519e-005
field sum 0.91756410676297
field sqrsum 2.5108967443808e-005
field min 8.992e-006
field max 0.00011263141
statistic Basic.rack[11].node[1].app 	hops
field count 39997
field mean 5.0024001800135
field stddev 1.2242524735445
field sum 200081
field sqrsum 1060831
field min 3
field max 6
statistic Basic.rack[11].node[2].app 	throughput
field count 40108
field mean 20054.5
field stddev 11578.326634996
field sum 804345886
field sqrsum 21507404645754
field min 1
field max 40108
statistic Basic.rack[11].node[2].app 	"End-to-End Delay"
field count 40108
field mean 2.2826550873566e-005
field stddev 1.0045248813151e-005
field sum 0.91552730243697
field sqrsum 2.4945408545478e-005
field min 8.992e-006
field max 0.000100213622
statistic Basic.rack[11].node[2].app 	hops
field count 40108
field mean 4.9908995711579
field stddev 1.2313148638753
field sum 200175
field sqrsum 1059861
field min 3
field max 6
statistic Basic.rack[11].node[3].app 	throughput
field count 40136
field mean 20068.5
field stddev 11586.409538766
field sum 805469316
field sqrsum 21552479467756
field min 1
field max 40136
statistic Basic.rack[11].node[3].app 	"End-to-End Delay"
field count 40136
field mean 2.3064729939928e-005
field stddev 1.0133929111824e-005
field sum 0.92572600086897
field sqrsum 2.547334500825e-005
field min 8.992e-006
field max 0.000128409809
statistic Basic.rack[11].node[3].app 	hops
field count 40136
field mean 5.009667131752
field stddev 1.218950989053
field sum 201068
field sqrsum 1066918
field min 3
field max 6
[...]
field max 6.7150308e-005
statistic Basic.rack[13].node[1].app 	hops
field count 40262
field mean 4.2597734836819
field stddev 1.3012502670028
field sum 171507
field sqrsum 798753
field min 3
field max 6
statistic Basic.rack[13].node[2].app 	throughput
field count 40107
field mean 20054
field stddev 11578.037959862
field sum 804305778
field sqrsum 21505795994090
field min 1
field max 40107
statistic Basic.rack[13].node[2].app 	"End-to-End Delay"
field count 40107
field mean 1.3540912157529e-005
field stddev 5.750234937892e-006
field sum 0.54308536390203
field sqrsum 8.6799841916706e-006
field min 8.992e-006
field max 5.9000156e-005
statistic Basic.rack[13].node[2].app 	hops
field count 40107
field mean 4.2450195726432
field stddev 1.2985996149495
field sum 170255
field sqrsum 790369
field min 3
field max 6
statistic Basic.rack[13].node[3].app 	throughput
field count 40121
field mean 20061
field stddev 11582.079411746
field sum 804867381
field sqrsum 21528324417861
field min 1
field max 40121
statistic Basic.rack[13].node[3].app 	"End-to-End Delay"
field count 40121
field mean 1.3565705226167e-005
field stddev 5.7739955959503e-006
field sum 0.54426965937903
field sqrsum 8.7209634513813e-006
field min 8.992e-006
field max 5.5177679e-005
statistic Basic.rack[13].node[3].app 	hops
field count 40121
field mean 4.2532588918521
field stddev 1.3026703573114
field sum 170645
field sqrsum 793879
field min 3
field max 6
statistic Basic.rack[13].node[4].app 	throughput
field count 39833
field mean 19917
field stddev 11498.940972977
field sum 793353861
field sqrsum 21068040681429
field min 1
field max 39833
statistic Basic.rack[13].node[4].app 	"End-to-End Delay"
field count 39833
field mean 1.3561854225241e-005
field stddev 5.7958115562061e-006
field sum 0.54020933935402
field sqrsum 8.6642542147271e-006
field min 8.992e-006
field max 6.5817752e-005
statistic Basic.rack[13].node[4].app 	hops
field count 39833
field mean 4.256269926945
field stddev 1.3001150607398
field sum 169540
field sqrsum 788936
field min 3
field max 6
statistic Basic.rack[13].node[5].app 	throughput
field count 39674
field mean 19837.5
field stddev 11453.041626572
field sum 787032975
field sqrsum 20816759844425
field min 1
field max 39674
statistic Basic.rack[13].node[5].app 	"End-to-End Delay"
field count 39674
field mean 1.3477692570752e-005
field stddev 5.7231782774622e-006
field sum 0.53471397505202
field sqrsum 8.5061905432028e-006
field min 8.992e-006
field max 5.6573457e-005
statistic Basic.rack[13].node[5].app 	hops
field count 39674
field mean 4.2439380954781
field stddev 1.2984459620894
field sum 168374
field sqrsum 781456
field min 3
field max 6
statistic Basic.rack[13].node[6].app 	throughput
field count 39809
field mean 19905
field stddev 11492.012769746
field sum 792398145
field sqrsum 21029982635585
field min 1
field max 39809
statistic Basic.rack[13].node[6].app 	"End-to-End Delay"
field count 39809
field mean 1.3526483749705e-005
field stddev 5.7716885659581e-006
field sum 0.53847579159202
field sqrsum 8.6097836220064e-006
field min 8.992e-006
field max 6.3749705e-005
statistic Basic.rack[13].node[6].app 	hops
field count 39809
field mean 4.2462006079027
field stddev 1.2984964159254
field sum 169037
field sqrsum 784885
field min 3
field max 6
statistic Basic.rack[13].node[7].app 	throughput
field count 40200
field mean 20100.5
field stddev 11604.884747381
field sum 808040100
field sqrsum 21655744026700
field min 1
field max 40200
statistic Basic.rack[13].node[7].app 	"End-to-End Delay"
field count 40200
field mean 1.3507088406518e-005
field stddev 5.737895722418e-006
field sum 0.54298495394202
field sqrsum 8.6576354351745e-006
field min 8.992e-006
field max 6.3445855e-005
statistic Basic.rack[13].node[7].app 	hops
field count 40200
field mean 4.2439552238806
field stddev 1.2987385560022
field sum 170607
field sqrsum 791853
field min 3
field max 6
statistic Basic.rack[13].node[8].app 	throughput
field count 40207
field mean 20104
field stddev 11606.905473323
field sum 808321528
field sqrsum 21667058558040
field min 1
field max 40207
statistic Basic.rack[13].node[8].app 	"End-to-End Delay"
field count 40207
field mean 1.3540473317756e-005
field stddev 5.7468061253459e-006
field sum 0.54442181068703
field sqrsum 8.6995635377171e-006
field min 8.992e-006
field max 6.059512e-005
statistic Basic.rack[13].node[8].app 	hops
field count 40207
field mean 4.246101425125
field stddev 1.3005517178835
field sum 170723
field sqrsum 792913
field min 3
field max 6
statistic Basic.rack[13].node[9].app 	throughput
field count 40118
field mean 20059.5
field stddev 11581.213386343
field sum 804747021
field sqrsum 21523495574659
field min 1
field max 40118
statistic Basic.rack[13].node[9].app 	"End-to-End Delay"
field count 40118
field mean 1.3501936702703e-005
field stddev 5.7336584699918e-006
field sum 0.54167069663903
field sqrsum 8.6324433939652e-006
field min 8.992e-006
field max 6.5122878e-005
statistic Basic.rack[13].node[9].app 	hops
field count 40118
field mean 4.2533526098011
field stddev 1.2979005375486
field sum 170636
field sqrsum 793354
field min 3
field max 6
statistic Basic.rack[13].eps.queue[0] 	dropsum
field count 0
field mean nan
field stddev nan
field sum 0
field sqrsum 0
field min nan
field max nan
statistic Basic.rack[13].eps.queue[1] 	dropsum
field count 0
field mean nan
field stddev nan
field sum 0
field sqrsum 0
field min nan
field max nan
statistic Basic.rack[13].eps.queue[2] 	dropsum
field count 0
field mean nan
field stddev nan
field sum 0
field sqrsum 0
field min nan
field max nan
statistic Basic.rack[13].eps.queue[3] 	dropsum
field count 0
field mean nan
field stddev nan
field sum 0
field sqrsum 0
field min nan
field max nan
statistic Basic.rack[14].node[0].app 	throughput
field count 40198
field mean 20099.5
field stddev 11604.307397112
field sum 807959701
field sqrsum 21652512027099
field min 1
field max 40198
statistic Basic.rack[14].node[0].app 	"End-to-End Delay"
field count 40198
field mean 1.916960879243e-005
field stddev 9.5496611928334e-006
field sum 0.77057993423809
field sqrsum 1.843752265625e-005
field min 8.992e-006
field max 8.2545358e-005
statistic Basic.rack[14].node[0].app 	hops
field count 40198
field mean 4.7439176078412
field stddev 1.0926879286189
field sum 190696
field sqrsum 952640
field min 3
field max 6
statistic Basic.rack[14].node[1].app 	throughput
field count 39810
field mean 19905.5
field stddev 11492.30144488
field sum 792437955
field sqrsum 21031567471685
field min 1
field max 39810
statistic Basic.rack[14].node[1].app 	"End-to-End Delay"
field count 39810
field mean 1.9252713964232e-005
field stddev 9.6098530027325e-006
field sum 0.76645054291608
field sqrsum 1.8432585348385e-005
field min 8.992e-006
field max 7.9371641e-005
statistic Basic.rack[14].node[1].app 	hops
field count 39810
field mean 4.751796031148
field stddev 1.0905923895982
field sum 189169
field sqrsum 946241
field min 3
field max 6
statistic Basic.rack[14].node[2].app 	throughput
field count 39696
field mean 19848.5
field stddev 11459.392479534
field sum 787906056
field sqrsum 20851408501336
field min 1
field max 39696
statistic Basic.rack[14].node[2].app 	"End-to-End Delay"
field count 39696
field mean 1.9263473163268e-005
field stddev 9.6743465573144e-006
field sum 0.7646828306891
field sqrsum 1.8445620580532e-005
field min 8.992e-006
field max 7.9697409e-005
statistic Basic.rack[14].node[2].app 	hops
field count 39696
field mean 4.7464228133817
field stddev 1.0917765883614
field sum 188414
field sqrsum 941608
field min 3
field max 6
statistic Basic.rack[14].node[3].app 	throughput
field count 39844
field mean 19922.5
field stddev 11502.116399457
field sum 793792090
field sqrsum 21085499286670
field min 1
field max 39844
statistic Basic.rack[14].node[3].app 	"End-to-End Delay"
field count 39844
field mean 1.9248259411382e-005
field stddev 9.6120229593928e-006
field sum 0.76692764798709
field sqrsum 1.8443156348389e-005
field min 8.992e-006
field max 8.1056588e-005
statistic Basic.rack[14].node[3].app 	hops
field count 39844
field mean 4.7418933841984
field stddev 1.092899319516
field sum 188936
field sqrsum 943504
field min 3
field max 6
statistic Basic.rack[14].node[4].app 	throughput
field count 40276
field mean 20138.5
field stddev 11626.824057612
field sum 811098226
field sqrsum 21778798466326
field min 1
field max 40276
statistic Basic.rack[14].node[4].app 	"End-to-End Delay"
field count 40276
field mean 1.9191356629558e-005
field stddev 9.6498463223473e-006
field sum 0.77295107961209
field sqrsum 1.8584369059697e-005
field min 8.992e-006
field max 0.000108657748
statistic Basic.rack[14].node[4].app 	hops
field count 40276
field mean 4.7557354255636
field stddev 1.0879273754915
field sum 191542
field sqrsum 958592
field min 3
field max 6
statistic Basic.rack[14].node[5].app 	throughput
field count 39990
field mean 19995.5
field stddev 11544.262969112
field sum 799620045
field sqrsum 21318136939715
field min 1
field max 39990
statistic Basic.rack[14].node[5].app 	"End-to-End Delay"
field count 39990
field mean 1.9157999979547e-005
field stddev 9.6256941316974e-006
field sum 0.76612841918209
field sqrsum 1.8382628545838e-005
field min 8.992e-006
field max 9.1216873e-005
statistic Basic.rack[14].node[5].app 	hops
field count 39990
field mean 4.7463615903976
field stddev 1.0962614342831
field sum 189807
field sqrsum 948951
field min 3
field max 6
statistic Basic.rack[14].node[6].app 	throughput
field count 40022
field mean 20011.5
field stddev 11553.500573419
field sum 800900253
field sqrsum 21369353583795
field min 1
field max 40022
statistic Basic.rack[14].node[6].app 	"End-to-End Delay"
field count 40022
field mean 1.9233566882442e-005
field stddev 9.6295126429203e-006
field sum 0.76976581376909
field sqrsum 1.851639009034e-005
field min 8.992e-006
field max 9.3358334e-005
statistic Basic.rack[14].node[6].app 	hops
field count 40022
field mean 4.7452900904503
field stddev 1.094626932013
field sum 189916
field sqrsum 949160
field min 3
field max 6
statistic Basic.rack[14].node[7].app 	throughput
field count 39917
field mean 19959
field stddev 11523.189684284
field sum 796703403
field sqrsum 21201605392835
field min 1
field max 39917
statistic Basic.rack[14].node[7].app 	"End-to-End Delay"
field count 39917
field mean 1.9320948374379e-005
field stddev 9.6830225911444e-006
field sum 0.77123429626009
field sqrsum 1.864353916479e-005
field min 8.992e-006
field max 8.6015853e-005
statistic Basic.rack[14].node[7].app 	hops
field count 39917
field mean 4.7596512763985
field stddev 1.0876288545949
field sum 189991
field sqrsum 951509
field min 3
field max 6
statistic Basic.rack[14].node[8].app 	throughput
field count 40061
field mean 20031
field stddev 11564.758903669
field sum 802461891
field sqrsum 21431884697531
field min 1
field max 40061
statistic Basic.rack[14].node[8].app 	"End-to-End Delay"
field count 40061
field mean 1.9237015179179e-005
field stddev 9.6949653968393e-006
field sum 0.7706540650931
field sqrsum 1.8590417651171e-005
field min 8.992e-006
field max 8.1991484e-005
statistic Basic.rack[14].node[8].app 	hops
field count 40061
field mean 4.7405706297896
field stddev 1.0930812065437
field sum 189912
field sqrsum 948156
field min 3
field max 6
statistic Basic.rack[14].node[9].app 	throughput
field count 40038
field mean 20019.5
field stddev 11558.119375573
field sum 801540741
field sqrsum 21394992639019
field min 1
field max 40038
statistic Basic.rack[14].node[9].app 	"End-to-End Delay"
field count 40038
field mean 1.9233267990511e-005
field stddev 9.6209804680823e-006
field sum 0.77006158380409
field sqrsum 1.8516756258002e-005
field min 8.992e-006
field max 0.000110666997
statistic Basic.rack[14].node[9].app 	hops
field count 40038
field mean 4.744967281083
field stddev 1.0913156626493
field sum 189979
field sqrsum 949127
field min 3
field max 6
statistic Basic.rack[14].eps.queue[0] 	dropsum
field count 0
field mean nan
field stddev nan
field sum 0
field sqrsum 0
field min nan
field max nan
statistic Basic.rack[14].eps.queue[1] 	dropsum
field count 0
field mean nan
field stddev nan
field sum 0
field sqrsum 0
field min nan
field max nan
statistic Basic.rack[14].eps.queue[2] 	dropsum
field count 0
field mean nan
field stddev nan
field sum 0
field sqrsum 0
field min nan
field max nan
statistic Basic.rack[14].eps.queue[3] 	dropsum
field count 0
field mean nan
field stddev nan
field sum 0
field sqrsum 0
field min nan
field max nan
statistic Basic.rack[15].node[0].app 	throughput
field count 40123
field mean 20062
field stddev 11582.656762016
field sum 804947626
field sqrsum 21531544047874
field min 1
field max 40123
statistic Basic.rack[15].node[0].app 	"End-to-End Delay"
field count 40123
field mean 2.1472411587742e-005
field stddev 8.9809238612912e-006
field sum 0.86153757013496
field sqrsum 2.1735409193528e-005
field min 8.992e-006
field max 8.3671426e-005
statistic Basic.rack[15].node[0].app 	hops
field count 40123
field mean 4.9980809012287
field stddev 1.2261264121209
field sum 200538
field sqrsum 1062624
field min 3
field max 6
statistic Basic.rack[15].node[1].app 	throughput
field count 40244
field mean 20122.5
field stddev 11617.586453304
field sum 809809890
field sqrsum 21726929412070
field min 1
field max 40244
statistic Basic.rack[15].node[1].app 	"End-to-End Delay"
field count 40244
field mean 2.1529677684399e-005
field stddev 9.0210991423357e-006
field sum 0.86644034873096
field sqrsum 2.1929166026196e-005
field min 8.992e-006
field max 9.4774013e-005
statistic Basic.rack[15].node[1].app 	hops
field count 40244
field mean 5.0134181492893
field stddev 1.2231638753856
field sum 201760
field sqrsum 1071716
field min 3
field max 6
statistic Basic.rack[15].node[2].app 	throughput
field count 40012
field mean 20006.5
field stddev 11550.613822073
field sum 800500078
field sqrsum 21353339580650
field min 1
field max 40012
statistic Basic.rack[15].node[2].app 	"End-to-End Delay"
field count 40012
field mean 2.1475326501473e-005
field stddev 9.0126584846071e-006
field sum 0.85927076397696
field sqrsum 2.1703134236125e-005
field min 8.992e-006
field max 8.761191e-005
statistic Basic.rack[15].node[2].app 	hops
field count 40012
field mean 5.0021243626912
field stddev 1.2225013274504
field sum 200145
field sqrsum 1060947
field min 3
field max 6
statistic Basic.rack[15].node[3].app 	throughput
field count 40096
field mean 20048.5
field stddev 11574.862533381
field sum 803864656
field sqrsum 21488106119536
field min 1
field max 40096
statistic Basic.rack[15].node[3].app 	"End-to-End Delay"
field count 40096
field mean 2.156026876197e-005
field stddev 8.9551976601493e-006
field sum 0.86448053627995
field sqrsum 2.1853873885669e-005
field min 8.992e-006
field max 8.4382746e-005
statistic Basic.rack[15].node[3].app 	hops
field count 40096
field mean 5.0092278531524
field stddev 1.2183960690303
field sum 200850
field sqrsum 1065624
field min 3
field max 6
statistic Basic.rack[15].node[4].app 	throughput
field count 39915
field mean 19958
field stddev 11522.612334015
field sum 796623570
field sqrsum 21198418738890
field min 1
field max 39915
statistic Basic.rack[15].node[4].app 	"End-to-End Delay"
field count 39915
field mean 2.1560931451935e-005
field stddev 9.1190284238988e-006
field sum 0.86060457890397
field sqrsum 2.1874552034376e-005
field min 8.992e-006
field max 9.207785e-005
statistic Basic.rack[15].node[4].app 	hops
field count 39915
field mean 4.9945885005637
field stddev 1.2268483464402
field sum 199359
field sqrsum 1055793
field min 3
field max 6
statistic Basic.rack[15].node[5].app 	throughput
field count 39855
field mean 19928
field stddev 11505.291825938
field sum 794230440
field sqrsum 21102967534280
field min 1
field max 39855
statistic Basic.rack[15].node[5].app 	"End-to-End Delay"
field count 39855
field mean 2.1493794175184e-005
field stddev 8.9909799542888e-006
field sum 0.85663516685197
field sqrsum 2.1634046473879e-005
field min 8.992e-006
field max 8.9352497e-005
statistic Basic.rack[15].node[5].app 	hops
field count 39855
field mean 5.0021829130598
field stddev 1.2249272971438
field sum 199362
field sqrsum 1057044
field min 3
field max 6
statistic Basic.rack[15].node[6].app 	throughput
field count 40113
field mean 20057
field stddev 11579.770010669
field sum 804546441
field sqrsum 21515449107369
field min 1
field max 40113
statistic Basic.rack[15].node[6].app 	"End-to-End Delay"
field count 40113
field mean 2.1472597532868e-005
field stddev 8.9826485650761e-006
field sum 0.86133030483595
field sqrsum 2.1731555041579e-005
field min 8.992e-006
field max 8.3909639e-005
statistic Basic.rack[15].node[6].app 	hops
field count 40113
field mean 5.0019195771944
field stddev 1.2251605825952
field sum 200642
field sqrsum 1063804
field min 3
field max 6
statistic Basic.rack[15].node[7].app 	throughput
field count 40195
field mean 20098
field stddev 11603.441371708
field sum 807839110
field sqrsum 21647664630670
field min 1
field max 40195
statistic Basic.rack[15].node[7].app 	"End-to-End Delay"
field count 40195
field mean 2.1567644841397e-005
field stddev 9.0871974358896e-006
field sum 0.86691148439996
field sqrsum 2.2016345262525e-005
field min 8.992e-006
field max 8.8126957e-005
statistic Basic.rack[15].node[7].app 	hops
field count 40195
field mean 5.0117925115064
field stddev 1.2204451034045
field sum 201449
field sqrsum 1069489
field min 3
field max 6
statistic Basic.rack[15].node[8].app 	throughput
field count 39958
field mean 19979.5
field stddev 11535.025364804
field sum 798340861
field sqrsum 21267002196179
field min 1
field max 39958
statistic Basic.rack[15].node[8].app 	"End-to-End Delay"
field count 39958
field mean 2.1555738972871e-005
field stddev 8.9924702525154e-006
field sum 0.86132421787796
field sqrsum 2.1797583686871e-005
field min 8.992e-006
field max 9.1106266e-005
statistic Basic.rack[15].node[8].app 	hops
field count 39958
field mean 5.0123379548526
field stddev 1.2190243667145
field sum 200283
field sqrsum 1063263
field min 3
field max 6
statistic Basic.rack[15].node[9].app 	throughput
field count 39785
field mean 19893
field stddev 11485.084566515
field sum 791443005
field sqrsum 20991970450285
field min 1
field max 39785
statistic Basic.rack[15].node[9].app 	"End-to-End Delay"
field count 39785
field mean 2.1454073860499e-005
field stddev 8.9808708709921e-006
field sum 0.85355032853996
field sqrsum 2.1520951751221e-005
field min 8.992e-006
field max 8.8440775e-005
statistic Basic.rack[15].node[9].app 	hops
field count 39785
field mean 5.000301621214
field stddev 1.2258525882755
field sum 198937
field sqrsum 1054529
field min 3
field max 6
statistic Basic.rack[15].eps.queue[0] 	dropsum
field count 0
field mean nan
field stddev nan
field sum 0
field sqrsum 0
field min nan
field max nan
statistic Basic.rack[15].eps.queue[1] 	dropsum
field count 0
field mean nan
field stddev nan
field sum 0
field sqrsum 0
field min nan
field max nan
statistic Basic.rack[15].eps.queue[2] 	dropsum
field count 0
field mean nan
field stddev nan
field sum 0
field sqrsum 0
field min nan
field max nan
statistic Basic.rack[15].eps.queue[3] 	dropsum
field count 0
field mean nan
field stddev nan
field sum 0
field sqrsum 0
field min nan
field max nan
