version 2
run Basic-69-20180510-19:50:50-19024
attr configname Basic
attr datetime 20180510-19:50:50
attr experiment Basic
attr inifile omnetpp.ini
attr iterationvars "$0=exponential(0.05 ms), $1=5, $2=3"
attr iterationvarsf exponential(0.05_ms),5,3-
attr measurement "$0=exponential(0.05 ms), $1=5, $2=3"
attr network Networks.Basic
attr processid 19024
attr repetition 0
attr replication #0
attr resultdir results
attr runnumber 69
attr seedset 69
param **.frameCapacity 50
param **.packetLength "1024 bytes"
param **.pattern 5
param **.sendIaTime "exponential(0.05 ms)"
param **.tp 3

statistic Basic.rack[0].node[0].app 	throughput
field count 171587
field mean 85794
field stddev 49533.044657077
field sum 14721135078
field sqrsum 1.6839751767976e+015
field min 1
field max 171587
statistic Basic.rack[0].node[0].app 	"End-to-End Delay"
field count 171587
field mean 0.00028718789898883
field stddev 0.00017677084950483
field sum 49.277710023796
field sqrsum 0.019513669880717
field min 8.992e-006
field max 0.000419163273
statistic Basic.rack[0].node[0].app 	hops
field count 171587
field mean 3.9495824275732
field stddev 0.99873113577056
field sum 677697
field sqrsum 2847771
field min 3
field max 5
statistic Basic.rack[0].node[1].app 	throughput
field count 171337
field mean 85669
field stddev 49460.875873428
field sum 14678269453
field sqrsum 1.6766253282689e+015
field min 1
field max 171337
statistic Basic.rack[0].node[1].app 	"End-to-End Delay"
field count 171337
field mean 0.00028678104296855
field stddev 0.00017688077132193
field sum 49.136203559102
field sqrsum 0.019451888113483
field min 8.992e-006
field max 0.000419104642
statistic Basic.rack[0].node[1].app 	hops
field count 171337
field mean 3.945259926344
field stddev 0.99850355198782
field sum 675969
field sqrsum 2837697
field min 3
field max 5
statistic Basic.rack[0].node[2].app 	throughput
field count 172272
field mean 86136.5
field stddev 49730.787124275
field sum 14838907128
field sqrsum 1.7042237521389e+015
field min 1
field max 172272
statistic Basic.rack[0].node[2].app 	"End-to-End Delay"
field count 172272
field mean 0.00028658030053843
field stddev 0.00017709597670633
field sum 49.369761534356
field sqrsum 0.01955133388103
field min 8.992e-006
field max 0.00041918433
statistic Basic.rack[0].node[2].app 	hops
field count 172272
field mean 3.943531160026
field stddev 0.9984072597941
field sum 679360
field sqrsum 2850800
field min 3
field max 5
statistic Basic.rack[0].node[3].app 	throughput
field count 172155
field mean 86078
field stddev 49697.012133528
field sum 14818758090
field sqrsum 1.7007538055753e+015
field min 1
field max 172155
statistic Basic.rack[0].node[3].app 	"End-to-End Delay"
field count 172155
field mean 0.00028670492540798
field stddev 0.00017695418822934
field sum 49.357686433611
field sqrsum 0.019541712949995
field min 8.992e-006
field max 0.000419223476
statistic Basic.rack[0].node[3].app 	hops
field count 172155
field mean 3.9451482675496
field stddev 0.99849741047383
field sum 679177
field sqrsum 2851091
field min 3
field max 5
statistic Basic.rack[0].node[4].app 	throughput
field count 172398
field mean 86199.5
field stddev 49767.160191235
field sum 14860621401
field sqrsum 1.7079658924002e+015
field min 1
field max 172398
statistic Basic.rack[0].node[4].app 	"End-to-End Delay"
field count 172398
field mean 0.00028693035634559
field stddev 0.00017689099817614
field sum 49.466219573267
field sqrsum 0.019587735448595
field min 8.992e-006
field max 0.000419077333
statistic Basic.rack[0].node[4].app 	hops
field count 172398
field mean 3.9477140106034
field stddev 0.99863504846368
field sum 680578
field sqrsum 2858654
field min 3
field max 5
statistic Basic.rack[0].node[5].app 	throughput
field count 172256
field mean 86128.5
field stddev 49726.168322122
field sum 14836150896
field sqrsum 1.7037489512112e+015
field min 1
field max 172256
statistic Basic.rack[0].node[5].app 	"End-to-End Delay"
field count 172256
field mean 0.00028727935293654
field stddev 0.00017677806467467
field sum 49.485592219437
field sqrsum 0.019599241059761
field min 8.992e-006
field max 0.0004192033
statistic Basic.rack[0].node[5].app 	hops
field count 172256
field mean 3.9462544120379
field stddev 0.99855755985926
field sum 679766
field sqrsum 2854288
field min 3
field max 5
statistic Basic.rack[0].node[6].app 	throughput
field count 172229
field mean 86115
field stddev 49718.374093488
field sum 14831500335
field sqrsum 1.7029479246313e+015
field min 1
field max 172229
statistic Basic.rack[0].node[6].app 	"End-to-End Delay"
field count 172229
field mean 0.00028720718077365
field stddev 0.00017677848318718
field sum 49.465405537464
field sqrsum 0.019589053538652
field min 8.992e-006
field max 0.000419157343
statistic Basic.rack[0].node[6].app 	hops
field count 172229
field mean 3.9437667291803
field stddev 0.99842055625338
field sum 679231
field sqrsum 2850413
field min 3
field max 5
statistic Basic.rack[0].node[7].app 	throughput
field count 171344
field mean 85672.5
field stddev 49462.89659937
field sum 14679468840
field sqrsum 1.6768308324369e+015
field min 1
field max 171344
statistic Basic.rack[0].node[7].app 	"End-to-End Delay"
field count 171344
field mean 0.00028718993706753
field stddev 0.00017678576141237
field sum 49.208272576899
field sqrsum 0.019487138683951
field min 8.992e-006
field max 0.000419171133
statistic Basic.rack[0].node[7].app 	hops
field count 171344
field mean 3.9472873284154
field stddev 0.99861263475096
field sum 676344
field sqrsum 2840592
field min 3
field max 5
statistic Basic.rack[0].node[8].app 	throughput
field count 172366
field mean 86183.5
field stddev 49757.922586927
field sum 14855105161
field sqrsum 1.7070149891557e+015
field min 1
field max 172366
statistic Basic.rack[0].node[8].app 	"End-to-End Delay"
field count 172366
field mean 0.00028712705711754
field stddev 0.0001768006194979
field sum 49.490942327122
field sqrsum 0.019598052919348
field min 8.992e-006
field max 0.000419155324
statistic Basic.rack[0].node[8].app 	hops
field count 172366
field mean 3.9488762284905
field stddev 0.99869522200975
field sum 680652
field sqrsum 2859726
field min 3
field max 5
statistic Basic.rack[0].node[9].app 	throughput
field count 172931
field mean 86466
field stddev 49921.024037974
field sum 14952651846
field sqrsum 1.7238563418044e+015
field min 1
field max 172931
statistic Basic.rack[0].node[9].app 	"End-to-End Delay"
field count 172931
field mean 0.00028694433666401
field stddev 0.00017685631290277
field sum 49.621571083643
field sqrsum 0.019647560214489
field min 8.992e-006
field max 0.000419111314
statistic Basic.rack[0].node[9].app 	hops
field count 172931
field mean 3.9459032793426
field stddev 0.99853858742563
field sum 682369
field sqrsum 2864987
field min 3
field max 5
statistic Basic.rack[0].eps.queue[0] 	dropsum
field count 0
field mean nan
field stddev nan
field sum 0
field sqrsum 0
field min nan
field max nan
statistic Basic.rack[0].eps.queue[1] 	dropsum
field count 278534
field mean 139267.5
field stddev 80405.984276669
field sum 38790733845
field sqrsum 7.2030384374334e+015
field min 1
field max 278534
statistic Basic.rack[0].eps.queue[2] 	dropsum
field count 0
field mean nan
field stddev nan
field sum 0
field sqrsum 0
field min nan
field max nan
statistic Basic.rack[0].eps.queue[3] 	dropsum
field count 0
field mean nan
field stddev nan
field sum 0
field sqrsum 0
field min nan
field max nan
statistic Basic.rack[1].node[0].app 	throughput
field count 172539
field mean 86270
field stddev 49807.863385213
field sum 14884939530
field sqrsum 1.7121600160243e+015
field min 1
field max 172539
statistic Basic.rack[1].node[0].app 	"End-to-End Delay"
field count 172539
field mean 0.00028655680353036
field stddev 0.00017710002747977
field sum 49.442224324324
field sqrsum 0.019579560013759
field min 8.992e-006
field max 0.000419141678
statistic Basic.rack[1].node[0].app 	hops
field count 172539
field mean 3.9419435605863
field stddev 0.99831619546724
field sum 680139
field sqrsum 2853027
field min 3
field max 5
statistic Basic.rack[1].node[1].app 	throughput
field count 171778
field mean 85889.5
field stddev 49588.181607785
field sum 14753926531
field sqrsum 1.6896049124036e+015
field min 1
field max 171778
statistic Basic.rack[1].node[1].app 	"End-to-End Delay"
field count 171778
field mean 0.00028713689528961
field stddev 0.00017677844735976
field sum 49.323801599059
field sqrsum 0.019530820912457
field min 8.992e-006
field max 0.000419126935
statistic Basic.rack[1].node[1].app 	hops
field count 171778
field mean 3.9483170138202
field stddev 0.99866644826522
field sum 678234
field sqrsum 2849202
field min 3
field max 5
statistic Basic.rack[1].node[2].app 	throughput
field count 172031
field mean 86016
field stddev 49661.216416838
field sum 14797418496
field sqrsum 1.6970813999964e+015
field min 1
field max 172031
statistic Basic.rack[1].node[2].app 	"End-to-End Delay"
field count 172031
field mean 0.00028856121728597
field stddev 0.00017613355595218
field sum 49.641474770923
field sqrsum 0.01966149615822
field min 8.992e-006
field max 0.0004191309
statistic Basic.rack[1].node[2].app 	hops
field count 172031
field mean 3.9509216362167
field stddev 0.99879783397163
field sum 679681
field sqrsum 2856983
field min 3
field max 5
statistic Basic.rack[1].node[3].app 	throughput
field count 172045
field mean 86023
field stddev 49665.257868722
field sum 14799827035
field sqrsum 1.6974957614334e+015
field min 1
field max 172045
statistic Basic.rack[1].node[3].app 	"End-to-End Delay"
field count 172045
field mean 0.00028748676750637
field stddev 0.00017670125280252
field sum 49.460660915633
field sqrsum 0.019591072583625
field min 8.992e-006
field max 0.000419196986
statistic Basic.rack[1].node[3].app 	hops
field count 172045
field mean 3.9464500566712
field stddev 0.99856807447878
field sum 678967
field sqrsum 2851061
field min 3
field max 5
statistic Basic.rack[1].node[4].app 	throughput
field count 171928
field mean 85964.5
field stddev 49631.482877974
field sum 14779704556
field sqrsum 1.6940349565042e+015
field min 1
field max 171928
statistic Basic.rack[1].node[4].app 	"End-to-End Delay"
field count 171928
field mean 0.00028738129267671
field stddev 0.00017672516698582
field sum 49.408890887322
field sqrsum 0.019568777971783
field min 8.992e-006
field max 0.000419183437
statistic Basic.rack[1].node[4].app 	hops
field count 171928
field mean 3.9484900656089
field stddev 0.99867538652384
field sum 678856
field sqrsum 2851928
field min 3
field max 5
statistic Basic.rack[1].node[5].app 	throughput
field count 172286
field mean 86143.5
field stddev 49734.82857616
field sum 14841319041
field sqrsum 1.7046392753048e+015
field min 1
field max 172286
statistic Basic.rack[1].node[5].app 	"End-to-End Delay"
field count 172286
field mean 0.00028721958040621
field stddev 0.00017674208608484
field sum 49.483912629865
field sqrsum 0.019594546964333
field min 8.992e-006
field max 0.000419174376
statistic Basic.rack[1].node[5].app 	hops
field count 172286
field mean 3.9461476846639
field stddev 0.99855180918958
field sum 679866
field sqrsum 2854638
field min 3
field max 5
statistic Basic.rack[1].node[6].app 	throughput
field count 171602
field mean 85801.5
field stddev 49537.374784096
field sum 14723709003
field sqrsum 1.6844168494582e+015
field min 1
field max 171602
statistic Basic.rack[1].node[6].app 	"End-to-End Delay"
field count 171602
field mean 0.00028715889218632
field stddev 0.00017678347469822
field sum 49.277040216957
field sqrsum 0.019513282843885
field min 8.992e-006
field max 0.00041919914
statistic Basic.rack[1].node[6].app 	hops
field count 171602
field mean 3.9467255626391
field stddev 0.9985828184264
field sum 677266
field sqrsum 2844098
field min 3
field max 5
statistic Basic.rack[1].node[7].app 	throughput
field count 171856
field mean 85928.5
field stddev 49610.698268283
field sum 14767328296
field sqrsum 1.691907570201e+015
field min 1
field max 171856
statistic Basic.rack[1].node[7].app 	"End-to-End Delay"
field count 171856
field mean 0.00028699616379732
field stddev 0.00017688123960569
field sum 49.322012725553
field sqrsum 0.019532051174927
field min 8.992e-006
field max 0.000419228434
statistic Basic.rack[1].node[7].app 	hops
field count 171856
field mean 3.9475840238339
field stddev 0.99862824329905
field sum 678416
field sqrsum 2849488
field min 3
field max 5
statistic Basic.rack[1].node[8].app 	throughput
field count 172018
field mean 86009.5
field stddev 49657.463640088
field sum 14795182171
field sqrsum 1.6966966961881e+015
field min 1
field max 172018
statistic Basic.rack[1].node[8].app 	"End-to-End Delay"
field count 172018
field mean 0.00028720308547237
field stddev 0.00017673893945129
field sum 49.404100356786
field sqrsum 0.019562245348111
field min 8.992e-006
field max 0.000419218184
statistic Basic.rack[1].node[8].app 	hops
field count 172018
field mean 3.9488076829169
field stddev 0.99869171660514
field sum 679266
field sqrsum 2853858
field min 3
field max 5
statistic Basic.rack[1].node[9].app 	throughput
field count 172295
field mean 86148
field stddev 49737.426652371
field sum 14842869660
field sqrsum 1.704906433003e+015
field min 1
field max 172295
statistic Basic.rack[1].node[9].app 	"End-to-End Delay"
field count 172295
field mean 0.00028759937954664
field stddev 0.00017661398189479
field sum 49.551935098988
field sqrsum 0.019625386143719
field min 8.992e-006
field max 0.000419134404
statistic Basic.rack[1].node[9].app 	hops
field count 172295
field mean 3.9456455497838
field stddev 0.99852460191368
field sum 679815
field sqrsum 2854095
field min 3
field max 5
statistic Basic.rack[1].eps.queue[0] 	dropsum
field count 281257
field mean 140629
field stddev 81192.046668172
field sum 39552890653
field sqrsum 7.4163647618908e+015
field min 1
field max 281257
statistic Basic.rack[1].eps.queue[1] 	dropsum
field count 0
field mean nan
field stddev nan
field sum 0
field sqrsum 0
field min nan
field max nan
statistic Basic.rack[1].eps.queue[2] 	dropsum
field count 0
field mean nan
field stddev nan
field sum 0
field sqrsum 0
field min nan
field max nan
statistic Basic.rack[1].eps.queue[3] 	dropsum
field count 0
field mean nan
field stddev nan
field sum 0
field sqrsum 0
field min nan
field max nan
statistic Basic.rack[2].node[0].app 	throughput
field count 199842
field mean 99921.5
field stddev 57689.560585083
field sum 19968512403
field sqrsum 2.6603716265977e+015
field min 1
field max 199842
statistic Basic.rack[2].node[0].app 	"End-to-End Delay"
field count 199842
field mean 1.7236151829443e-005
field stddev 1.9100227475252e-005
field sum 3.4445070538996
field sqrsum 0.00013227577830823
field min 8.496e-007
field max 0.000209681984
statistic Basic.rack[2].node[0].app 	hops
field count 199842
field mean 4.248801553227
field stddev 0.8295955832701
field sum 849089
field sqrsum 3745147
field min 3
field max 5
statistic Basic.rack[2].node[1].app 	throughput
field count 199889
field mean 99945
field stddev 57703.128316409
field sum 19977906105
field sqrsum 2.6622491082503e+015
field min 1
field max 199889
statistic Basic.rack[2].node[1].app 	"End-to-End Delay"
field count 199889
field mean 1.7272198831505e-005
field stddev 1.9093893311278e-005
field sum 3.4525225522307
field sqrsum 0.00013250717575156
field min 8.496e-007
field max 0.000255317944
statistic Basic.rack[2].node[1].app 	hops
field count 199889
field mean 4.2502188714737
field stddev 0.82899343392178
field sum 849572
field sqrsum 3748236
field min 3
field max 5
statistic Basic.rack[2].node[2].app 	throughput
field count 200039
field mean 100020
field stddev 57746.429586599
field sum 20007900780
field sqrsum 2.6682469787205e+015
field min 1
field max 200039
statistic Basic.rack[2].node[2].app 	"End-to-End Delay"
field count 200039
field mean 1.7250899314088e-005
field stddev 1.9058455548384e-005
field sum 3.4508526478908
field sqrsum 0.00013218905969412
field min 8.496e-007
field max 0.000246777709
statistic Basic.rack[2].node[2].app 	hops
field count 200039
field mean 4.2522108188903
field stddev 0.82759722363325
field sum 850608
field sqrsum 3753974
field min 3
field max 5
statistic Basic.rack[2].node[3].app 	throughput
field count 199625
field mean 99813
field stddev 57626.918080876
field sum 19925170125
field sqrsum 2.6517146991921e+015
field min 1
field max 199625
statistic Basic.rack[2].node[3].app 	"End-to-End Delay"
field count 199625
field mean 1.7272501639618e-005
field stddev 1.9093100278025e-005
field sum 3.4480231398087
field sqrsum 0.00013232821150531
field min 8.496e-007
field max 0.000238215588
statistic Basic.rack[2].node[3].app 	hops
field count 199625
field mean 4.2507651847214
field stddev 0.82903670339657
field sum 848559
field sqrsum 3744227
field min 3
field max 5
statistic Basic.rack[2].node[4].app 	throughput
field count 200126
field mean 100063.5
field stddev 57771.544323309
field sum 20025308001
field sqrsum 2.6717298677748e+015
field min 1
field max 200126
statistic Basic.rack[2].node[4].app 	"End-to-End Delay"
field count 200126
field mean 1.7214382935899e-005
field stddev 1.9013145983844e-005
field sum 3.4450455994297
field sqrsum 0.00013164946568583
field min 8.496e-007
field max 0.000236354632
statistic Basic.rack[2].node[4].app 	hops
field count 200126
field mean 4.2494578415598
field stddev 0.82961221098545
field sum 850427
field sqrsum 3751591
field min 3
field max 5
statistic Basic.rack[2].node[5].app 	throughput
field count 200254
field mean 100127.5
field stddev 57808.494740537
field sum 20050932385
field sqrsum 2.6768596261947e+015
field min 1
field max 200254
statistic Basic.rack[2].node[5].app 	"End-to-End Delay"
field count 200254
field mean 1.7190920601984e-005
field stddev 1.8966548593128e-005
field sum 3.4425506142297
field sqrsum 0.00013121761906591
field min 8.496e-007
field max 0.000224357103
statistic Basic.rack[2].node[5].app 	hops
field count 200254
field mean 4.2510212030721
field stddev 0.82881202040807
field sum 851284
field sqrsum 3756386
field min 3
field max 5
statistic Basic.rack[2].node[6].app 	throughput
field count 200057
field mean 100029
field stddev 57751.625739021
field sum 20011501653
field sqrsum 2.6689673279634e+015
field min 1
field max 200057
statistic Basic.rack[2].node[6].app 	"End-to-End Delay"
field count 200057
field mean 1.7292028638397e-005
field stddev 1.9047529465788e-005
field sum 3.4593913733117
field sqrsum 0.00013240188771795
field min 8.496e-007
field max 0.000252511675
statistic Basic.rack[2].node[6].app 	hops
field count 200057
field mean 4.2517582488991
field stddev 0.82967281516589
field sum 850594
field sqrsum 3754230
field min 3
field max 5
statistic Basic.rack[2].node[7].app 	throughput
field count 199938
field mean 99969.5
field stddev 57717.273398005
field sum 19987701891
field sqrsum 2.6642074230225e+015
field min 1
field max 199938
statistic Basic.rack[2].node[7].app 	"End-to-End Delay"
field count 199938
field mean 1.7311810204212e-005
field stddev 1.9186739500941e-005
field sum 3.4612887086098
field sqrsum 0.00013352417546955
field min 8.496e-007
field max 0.0002627099
statistic Basic.rack[2].node[7].app 	hops
field count 199938
field mean 4.2517780511959
field stddev 0.82847671797145
field sum 850092
field sqrsum 3751634
field min 3
field max 5
statistic Basic.rack[2].node[8].app 	throughput
field count 200140
field mean 100070.5
field stddev 57775.585775193
field sum 20028109870
field sqrsum 2.6722906156245e+015
field min 1
field max 200140
statistic Basic.rack[2].node[8].app 	"End-to-End Delay"
field count 200140
field mean 1.7288009958173e-005
field stddev 1.9067955161535e-005
field sum 3.4600223130287
field sqrsum 0.00013258482159265
field min 8.496e-007
field max 0.000214788209
statistic Basic.rack[2].node[8].app 	hops
field count 200140
field mean 4.2534475866893
field stddev 0.82857541145225
field sum 851285
field sqrsum 3758299
field min 3
field max 5
statistic Basic.rack[2].node[9].app 	throughput
field count 200757
field mean 100379
field stddev 57953.698333238
field sum 20151786903
field sqrsum 2.697081572786e+015
field min 1
field max 200757
statistic Basic.rack[2].node[9].app 	"End-to-End Delay"
field count 200757
field mean 1.7228212981509e-005
field stddev 1.9112066275674e-005
field sum 3.4586843535287
field sqrsum 0.00013291731107802
field min 8.496e-007
field max 0.000258900276
statistic Basic.rack[2].node[9].app 	hops
field count 200757
field mean 4.2508306061557
field stddev 0.82774149369009
field sum 853384
field sqrsum 3765140
field min 3
field max 5
statistic Basic.rack[2].eps.queue[0] 	dropsum
field count 0
field mean nan
field stddev nan
field sum 0
field sqrsum 0
field min nan
field max nan
statistic Basic.rack[2].eps.queue[1] 	dropsum
field count 0
field mean nan
field stddev nan
field sum 0
field sqrsum 0
field min nan
field max nan
statistic Basic.rack[2].eps.queue[2] 	dropsum
field count 0
field mean nan
field stddev nan
field sum 0
field sqrsum 0
field min nan
field max nan
statistic Basic.rack[2].eps.queue[3] 	dropsum
field count 0
field mean nan
field stddev nan
field sum 0
field sqrsum 0
field min nan
field max nan
statistic Basic.rack[3].node[0].app 	throughput
field count 199481
field mean 99741
field stddev 57585.348861494
field sum 19896434421
field sqrsum 2.6459803886351e+015
field min 1
field max 199481
statistic Basic.rack[3].node[0].app 	"End-to-End Delay"
field count 199481
field mean 1.7208725987712e-005
field stddev 1.9174286180593e-005
field sum 3.4328138687548
field sqrsum 0.000132413823651
field min 8.496e-007
field max 0.000260500988
statistic Basic.rack[3].node[0].app 	hops
field count 199481
field mean 4.2488206896897
field stddev 0.82967080508643
field sum 847559
field sqrsum 3738439
field min 3
field max 5
statistic Basic.rack[3].node[1].app 	throughput
field count 200599
field mean 100300
field stddev 57908.087661972
field sum 20120079700
field sqrsum 2.6907186185201e+015
field min 1
field max 200599
statistic Basic.rack[3].node[1].app 	"End-to-End Delay"
field count 200599
field mean 1.7245735606816e-005
field stddev 1.9111512159138e-005
field sum 3.4594773169916
field sqrsum 0.0001329296299868
field min 8.496e-007
field max 0.00022670948
statistic Basic.rack[3].node[1].app 	hops
field count 200599
field mean 4.2511278720233
field stddev 0.8290842197695
field sum 852772
field sqrsum 3763130
field min 3
field max 5
statistic Basic.rack[3].node[2].app 	throughput
field count 200387
field mean 100194
field stddev 57846.888533438
field sum 20077575078
field sqrsum 2.6821967172952e+015
field min 1
field max 200387
statistic Basic.rack[3].node[2].app 	"End-to-End Delay"
field count 200387
field mean 1.7266657694944e-005
field stddev 1.9326495576274e-005
field sum 3.4600137355167
field sqrsum 0.00013458973522739
field min 8.496e-007
field max 0.000260754841
statistic Basic.rack[3].node[2].app 	hops
field count 200387
field mean 4.2508895287618
field stddev 0.82922286288655
field sum 851823
field sqrsum 3758793
field min 3
field max 5
statistic Basic.rack[3].node[3].app 	throughput
field count 199470
field mean 99735.5
field stddev 57582.173435014
field sum 19894240185
field sqrsum 2.6455426912147e+015
field min 1
field max 199470
statistic Basic.rack[3].node[3].app 	"End-to-End Delay"
field count 199470
field mean 1.7170561956213e-005
field stddev 1.919441911511e-005
field sum 3.4250119934057
field sqrsum 0.00013229889160678
field min 8.496e-007
field max 0.000268558041
statistic Basic.rack[3].node[3].app 	hops
field count 199470
field mean 4.2502982904697
field stddev 0.82841041561046
field sum 847807
field sqrsum 3740321
field min 3
field max 5
statistic Basic.rack[3].node[4].app 	throughput
field count 200930
field mean 100465.5
field stddev 58003.639131523
field sum 20186532915
field sqrsum 2.7040601012516e+015
field min 1
field max 200930
statistic Basic.rack[3].node[4].app 	"End-to-End Delay"
field count 200930
field mean 1.7178830406379e-005
field stddev 1.9089271336392e-005
field sum 3.4517423935538
field sqrsum 0.00013251548107651
field min 8.496e-007
field max 0.000232888978
statistic Basic.rack[3].node[4].app 	hops
field count 200930
field mean 4.2494201960882
field stddev 0.82998821535696
field sum 853836
field sqrsum 3766724
field min 3
field max 5
statistic Basic.rack[3].node[5].app 	throughput
field count 199943
field mean 99972
field stddev 57718.716773677
field sum 19988701596
field sqrsum 2.6644073050399e+015
field min 1
field max 199943
statistic Basic.rack[3].node[5].app 	"End-to-End Delay"
field count 199943
field mean 1.7197829868801e-005
field stddev 1.9239827614186e-005
field sum 3.4385856974577
field sqrsum 0.00013314893522282
field min 8.496e-007
field max 0.000250201213
statistic Basic.rack[3].node[5].app 	hops
field count 199943
field mean 4.2502813301791
field stddev 0.82909375425663
field sum 849814
field sqrsum 3749388
field min 3
field max 5
statistic Basic.rack[3].node[6].app 	throughput
field count 199608
field mean 99804.5
field stddev 57622.010603588
field sum 19921776636
field sqrsum 2.651037301098e+015
field min 1
field max 199608
statistic Basic.rack[3].node[6].app 	"End-to-End Delay"
field count 199608
field mean 1.7212644661169e-005
field stddev 1.9163216935542e-005
field sum 3.4357815755266
field sqrsum 0.00013244034310552
field min 8.496e-007
field max 0.000255873372
statistic Basic.rack[3].node[6].app 	hops
field count 199608
field mean 4.2509017674642
field stddev 0.82919403592373
field sum 848514
field sqrsum 3744192
field min 3
field max 5
statistic Basic.rack[3].node[7].app 	throughput
field count 200387
field mean 100194
field stddev 57846.888533438
field sum 20077575078
field sqrsum 2.6821967172952e+015
field min 1
field max 200387
statistic Basic.rack[3].node[7].app 	"End-to-End Delay"
field count 200387
field mean 1.7212169954127e-005
field stddev 1.9159608482762e-005
field sum 3.4490951005977
field sqrsum 0.0001329262274725
field min 8.496e-007
field max 0.000264993391
statistic Basic.rack[3].node[7].app 	hops
field count 200387
field mean 4.2472964813087
field stddev 0.82976039004962
field sum 851103
field sqrsum 3752853
field min 3
field max 5
statistic Basic.rack[3].node[8].app 	throughput
field count 199553
field mean 99777
field stddev 57606.133471185
field sum 19910799681
field sqrsum 2.6488465094283e+015
field min 1
field max 199553
statistic Basic.rack[3].node[8].app 	"End-to-End Delay"
field count 199553
field mean 1.7202407168906e-005
field stddev 1.9157823334177e-005
field sum 3.4327919577767
field sqrsum 0.00013229229802121
field min 8.496e-007
field max 0.000254628614
statistic Basic.rack[3].node[8].app 	hops
field count 199553
field mean 4.248755969592
field stddev 0.82975357074299
field sum 847852
field sqrsum 3739706
field min 3
field max 5
statistic Basic.rack[3].node[9].app 	throughput
field count 199940
field mean 99970.5
field stddev 57717.850748274
field sum 19988101770
field sqrsum 2.6642873746298e+015
field min 1
field max 199940
statistic Basic.rack[3].node[9].app 	"End-to-End Delay"
field count 199940
field mean 1.7253063018589e-005
field stddev 1.9198099157466e-005
field sum 3.4495774199367
field sqrsum 0.00013320669627796
field min 8.496e-007
field max 0.000255222994
statistic Basic.rack[3].node[9].app 	hops
field count 199940
field mean 4.2518805641693
field stddev 0.82894498926461
field sum 850121
field sqrsum 3752001
field min 3
field max 5
statistic Basic.rack[3].eps.queue[0] 	dropsum
field count 0
field mean nan
field stddev nan
field sum 0
field sqrsum 0
field min nan
field max nan
statistic Basic.rack[3].eps.queue[1] 	dropsum
field count 0
field mean nan
field stddev nan
field sum 0
field sqrsum 0
field min nan
field max nan
statistic Basic.rack[3].eps.queue[2] 	dropsum
field count 0
field mean nan
field stddev nan
field sum 0
field sqrsum 0
field min nan
field max nan
statistic Basic.rack[3].eps.queue[3] 	dropsum
field count 0
field mean nan
field stddev nan
field sum 0
field sqrsum 0
field min nan
field max nan
statistic Basic.rack[4].node[0].app 	throughput
field count 172591
field mean 86296
field stddev 49822.874492212
field sum 14893912936
field sqrsum 1.7137085163291e+015
field min 1
field max 172591
statistic Basic.rack[4].node[0].app 	"End-to-End Delay"
field count 172591
field mean 0.000286849239992
field stddev 0.00017709356704435
field sum 49.507597179459
field sqrsum 0.019614006898357
field min 8.992e-006
field max 0.000419185596
statistic Basic.rack[4].node[0].app 	hops
field count 172591
field mean 3.9444293155495
field stddev 0.99845764818316
field sum 680773
field sqrsum 2857319
field min 3
field max 5
statistic Basic.rack[4].node[1].app 	throughput
field count 171666
field mean 85833.5
field stddev 49555.84999271
field sum 14734693611
field sqrsum 1.6863021871818e+015
field min 1
field max 171666
statistic Basic.rack[4].node[1].app 	"End-to-End Delay"
field count 171666
field mean 0.00028701948711088
field stddev 0.00017701987761209
field sum 49.271487274376
field sqrsum 0.019521177810269
field min 8.992e-006
field max 0.000419221125
statistic Basic.rack[4].node[1].app 	hops
field count 171666
field mean 3.9475260098097
field stddev 0.99862519976852
field sum 677656
field sqrsum 2846258
field min 3
field max 5
statistic Basic.rack[4].node[2].app 	throughput
field count 171858
field mean 85929.5
field stddev 49611.275618553
field sum 14767672011
field sqrsum 1.6919666402016e+015
field min 1
field max 171858
statistic Basic.rack[4].node[2].app 	"End-to-End Delay"
field count 171858
field mean 0.00028695604453003
field stddev 0.0001769546456695
field sum 49.315691900842
field sqrsum 0.019532784949091
field min 8.992e-006
field max 0.000419154357
statistic Basic.rack[4].node[2].app 	hops
field count 171858
field mean 3.9497957616171
field stddev 0.9987418778511
field sum 678804
field sqrsum 2852562
field min 3
field max 5
statistic Basic.rack[4].node[3].app 	throughput
field count 171942
field mean 85971.5
field stddev 49635.524329859
field sum 14782111653
field sqrsum 1.6944488219306e+015
field min 1
field max 171942
statistic Basic.rack[4].node[3].app 	"End-to-End Delay"
field count 171942
field mean 0.00028668553739754
field stddev 0.00017713919978551
field sum 49.293284671208
field sqrsum 0.019526887415897
field min 8.992e-006
field max 0.000419209627
statistic Basic.rack[4].node[3].app 	hops
field count 171942
field mean 3.9438531597864
field stddev 0.99842542533127
field sum 678114
field sqrsum 2845782
field min 3
field max 5
statistic Basic.rack[4].node[4].app 	throughput
field count 171625
field mean 85813
field stddev 49544.014312192
field sum 14727656125
field sqrsum 1.6850942308541e+015
field min 1
field max 171625
statistic Basic.rack[4].node[4].app 	"End-to-End Delay"
field count 171625
field mean 0.00028810314444743
field stddev 0.00017646228673044
field sum 49.44570216579
field sqrsum 0.019589651478206
field min 8.992e-006
field max 0.000419224614
statistic Basic.rack[4].node[4].app 	hops
field count 171625
field mean 3.9484399126001
field stddev 0.99867280356897
field sum 677651
field sqrsum 2846833
field min 3
field max 5
statistic Basic.rack[4].node[5].app 	throughput
field count 172188
field mean 86094.5
field stddev 49706.538412969
field sum 14824439766
field sqrsum 1.7017320310986e+015
field min 1
field max 172188
statistic Basic.rack[4].node[5].app 	"End-to-End Delay"
field count 172188
field mean 0.00028642943716824
field stddev 0.00017731017111269
field sum 49.319711927124
field sqrsum 0.019539986648445
field min 8.992e-006
field max 0.000419190078
statistic Basic.rack[4].node[5].app 	hops
field count 172188
field mean 3.9430390038795
field stddev 0.99837930353004
field sum 678944
field sqrsum 2848732
field min 3
field max 5
statistic Basic.rack[4].node[6].app 	throughput
field count 172893
field mean 86447
field stddev 49910.05438286
field sum 14946081171
field sqrsum 1.7227201899589e+015
field min 1
field max 172893
statistic Basic.rack[4].node[6].app 	"End-to-End Delay"
field count 172893
field mean 0.00028695424277343
field stddev 0.00017707966516346
field sum 49.612379895827
field sqrsum 0.019657893278643
field min 8.992e-006
field max 0.000419152505
statistic Basic.rack[4].node[6].app 	hops
field count 172893
field mean 3.9444916798251
field stddev 0.99846111217593
field sum 681975
field sqrsum 2862405
field min 3
field max 5
statistic Basic.rack[4].node[7].app 	throughput
field count 172724
field mean 86362.5
field stddev 49861.268285113
field sum 14916876450
field sqrsum 1.7176733509254e+015
field min 1
field max 172724
statistic Basic.rack[4].node[7].app 	"End-to-End Delay"
field count 172724
field mean 0.00028623823030304
field stddev 0.00017732634337799
field sum 49.440212090863
field sqrsum 0.019582889997271
field min 8.992e-006
field max 0.000419069
statistic Basic.rack[4].node[7].app 	hops
field count 172724
field mean 3.9413515203446
field stddev 0.99828158629556
field sum 680766
field sqrsum 2855268
field min 3
field max 5
statistic Basic.rack[4].node[8].app 	throughput
field count 171517
field mean 85759
field stddev 49512.837397655
field sum 14709126403
field sqrsum 1.681915058551e+015
field min 1
field max 171517
statistic Basic.rack[4].node[8].app 	"End-to-End Delay"
field count 171517
field mean 0.00028722749048365
field stddev 0.00017692095713552
field sum 49.264397485284
field sqrsum 0.019518715876436
field min 8.992e-006
field max 0.000419208054
statistic Basic.rack[4].node[8].app 	hops
field count 171517
field mean 3.9439763988409
field stddev 0.9984323553319
field sum 676459
field sqrsum 2838917
field min 3
field max 5
statistic Basic.rack[4].node[9].app 	throughput
field count 171889
field mean 85945
field stddev 49620.224547725
field sum 14773000105
field sqrsum 1.6928824010323e+015
field min 1
field max 171889
statistic Basic.rack[4].node[9].app 	"End-to-End Delay"
field count 171889
field mean 0.00028755908190029
field stddev 0.00017678545334757
field sum 49.42824302876
field sqrsum 0.019585572439118
field min 8.992e-006
field max 0.000419175831
statistic Basic.rack[4].node[9].app 	hops
field count 171889
field mean 3.946890144221
field stddev 0.99859158045272
field sum 678427
field sqrsum 2849081
field min 3
field max 5
statistic Basic.rack[4].eps.queue[0] 	dropsum
field count 0
field mean nan
field stddev nan
field sum 0
field sqrsum 0
field min nan
field max nan
statistic Basic.rack[4].eps.queue[1] 	dropsum
field count 281099
field mean 140550
field stddev 81146.435996906
field sum 39508464450
field sqrsum 7.4038730684418e+015
field min 1
field max 281099
statistic Basic.rack[4].eps.queue[2] 	dropsum
field count 0
field mean nan
field stddev nan
field sum 0
field sqrsum 0
field min nan
field max nan
statistic Basic.rack[4].eps.queue[3] 	dropsum
field count 0
field mean nan
field stddev nan
field sum 0
field sqrsum 0
field min nan
field max nan
statistic Basic.rack[5].node[0].app 	throughput
field count 172172
field mean 86086.5
field stddev 49701.919610816
field sum 14821684878
field sqrsum 1.701257693105e+015
field min 1
field max 172172
statistic Basic.rack[5].node[0].app 	"End-to-End Delay"
field count 172172
field mean 0.00028678067841226
field stddev 0.00017701482916335
field sum 49.375602963595
field sqrsum 0.019554818027542
field min 8.992e-006
field max 0.000419079689
statistic Basic.rack[5].node[0].app 	hops
field count 172172
field mean 3.9445902934275
field stddev 0.99846660172694
field sum 679148
field sqrsum 2850604
field min 3
field max 5
statistic Basic.rack[5].node[1].app 	throughput
field count 172124
field mean 86062.5
field stddev 49688.063204355
field sum 14813421750
field sqrsum 1.6998352080052e+015
field min 1
field max 172124
statistic Basic.rack[5].node[1].app 	"End-to-End Delay"
field count 172124
field mean 0.00028689395290558
field stddev 0.00017691664172308
field sum 49.38133474992
field sqrsum 0.019554569840821
field min 8.992e-006
field max 0.000419168764
statistic Basic.rack[5].node[1].app 	hops
field count 172124
field mean 3.9435523227441
field stddev 0.99840845900825
field sum 678780
field sqrsum 2848380
field min 3
field max 5
statistic Basic.rack[5].node[2].app 	throughput
field count 171669
field mean 85835
field stddev 49556.716018114
field sum 14735208615
field sqrsum 1.6863905968885e+015
field min 1
field max 171669
statistic Basic.rack[5].node[2].app 	"End-to-End Delay"
field count 171669
field mean 0.00028817560164932
field stddev 0.00017628482318679
field sum 49.470817359536
field sqrsum 0.019591095500549
field min 8.992e-006
field max 0.000419193012
statistic Basic.rack[5].node[2].app 	hops
field count 171669
field mean 3.9510628010881
field stddev 0.99880476661341
field sum 678275
field sqrsum 2851165
field min 3
field max 5
statistic Basic.rack[5].node[3].app 	throughput
field count 171600
field mean 85800.5
field stddev 49536.797433827
field sum 14723365800
field sqrsum 1.6843579553086e+015
field min 1
field max 171600
statistic Basic.rack[5].node[3].app 	"End-to-End Delay"
field count 171600
field mean 0.00028680692221868
field stddev 0.00017692040682757
field sum 49.216067852725
field sqrsum 0.019486700132124
field min 8.992e-006
field max 0.000419225414
statistic Basic.rack[5].node[3].app 	hops
field count 171600
field mean 3.9450699300699
field stddev 0.99849311333316
field sum 676974
field sqrsum 2841792
field min 3
field max 5
statistic Basic.rack[5].node[4].app 	throughput
field count 172246
field mean 86123.5
field stddev 49723.281570776
field sum 14834428381
field sqrsum 1.7034522454186e+015
field min 1
field max 172246
statistic Basic.rack[5].node[4].app 	"End-to-End Delay"
field count 172246
field mean 0.00028747315903093
field stddev 0.00017664213490916
field sum 49.516101750442
field sqrsum 0.019609015129779
field min 8.992e-006
field max 0.000419134274
statistic Basic.rack[5].node[4].app 	hops
field count 172246
field mean 3.9491773393867
field stddev 0.99871059264243
field sum 680230
field sqrsum 2858150
field min 3
field max 5
statistic Basic.rack[5].node[5].app 	throughput
field count 171697
field mean 85849
field stddev 49564.798921883
field sum 14740015753
field sqrsum 1.6872159031671e+015
field min 1
field max 171697
statistic Basic.rack[5].node[5].app 	"End-to-End Delay"
field count 171697
field mean 0.00028677319717052
field stddev 0.00017696831619503
field sum 49.238097634587
field sqrsum 0.019497305083792
field min 8.992e-006
field max 0.000419238458
statistic Basic.rack[5].node[5].app 	hops
field count 171697
field mean 3.9463881139449
field stddev 0.99856475662867
field sum 677583
field sqrsum 2845209
field min 3
field max 5
statistic Basic.rack[5].node[6].app 	throughput
field count 172187
field mean 86094
field stddev 49706.249737835
field sum 14824267578
field sqrsum 1.7017023823912e+015
field min 1
field max 172187
statistic Basic.rack[5].node[6].app 	"End-to-End Delay"
field count 172187
field mean 0.00028650323699265
field stddev 0.00017712422770761
field sum 49.332132868054
field sqrsum 0.019535805762024
field min 8.992e-006
field max 0.000419154012
statistic Basic.rack[5].node[6].app 	hops
field count 172187
field mean 3.9435090918594
field stddev 0.99840601282092
field sum 679021
field sqrsum 2849363
field min 3
field max 5
statistic Basic.rack[5].node[7].app 	throughput
field count 172148
field mean 86074.5
field stddev 49694.991407586
field sum 14817553026
field sqrsum 1.7005463513976e+015
field min 1
field max 172148
statistic Basic.rack[5].node[7].app 	"End-to-End Delay"
field count 172148
field mean 0.00028728645326207
field stddev 0.00017671047609814
field sum 49.455788356159
field sqrsum 0.019583542225605
field min 8.992e-006
field max 0.000419239226
statistic Basic.rack[5].node[7].app 	hops
field count 172148
field mean 3.9492878221066
field stddev 0.99871621047373
field sum 679862
field sqrsum 2856676
field min 3
field max 5
statistic Basic.rack[5].node[8].app 	throughput
field count 172546
field mean 86273.5
field stddev 49809.884111155
field sum 14886147331
field sqrsum 1.7123684136323e+015
field min 1
field max 172546
statistic Basic.rack[5].node[8].app 	"End-to-End Delay"
field count 172546
field mean 0.00028638024723334
field stddev 0.00017716044447728
field sum 49.413766139124
field sqrsum 0.019566593408266
field min 8.992e-006
field max 0.00041919742
statistic Basic.rack[5].node[8].app 	hops
field count 172546
field mean 3.9445017560535
field stddev 0.99846167811172
field sum 680608
field sqrsum 2856674
field min 3
field max 5
statistic Basic.rack[5].node[9].app 	throughput
field count 171704
field mean 85852.5
field stddev 49566.819647825
field sum 14741217660
field sqrsum 1.687422271801e+015
field min 1
field max 171704
statistic Basic.rack[5].node[9].app 	"End-to-End Delay"
field count 171704
field mean 0.00028699480530569
field stddev 0.00017689717928465
field sum 49.278156050209
field sqrsum 0.019515610166363
field min 8.992e-006
field max 0.000419202494
statistic Basic.rack[5].node[9].app 	hops
field count 171704
field mean 3.9472464240786
field stddev 0.99861046861612
field sum 677758
field sqrsum 2846504
field min 3
field max 5
statistic Basic.rack[5].eps.queue[0] 	dropsum
field count 279798
field mean 139899.5
field stddev 80770.869646798
field sum 39143600301
field sqrsum 7.3015470992129e+015
field min 1
field max 279798
statistic Basic.rack[5].eps.queue[1] 	dropsum
field count 0
field mean nan
field stddev nan
field sum 0
field sqrsum 0
field min nan
field max nan
statistic Basic.rack[5].eps.queue[2] 	dropsum
field count 0
field mean nan
field stddev nan
field sum 0
field sqrsum 0
field min nan
field max nan
statistic Basic.rack[5].eps.queue[3] 	dropsum
field count 0
field mean nan
field stddev nan
field sum 0
field sqrsum 0
field min nan
field max nan
statistic Basic.rack[6].node[0].app 	throughput
field count 199732
field mean 99866.5
field stddev 57657.806320278
field sum 19946535778
field sqrsum 2.6559809715196e+015
field min 1
field max 199732
statistic Basic.rack[6].node[0].app 	"End-to-End Delay"
field count 199732
field mean 1.7246821465563e-005
field stddev 1.922311254844e-005
field sum 3.4447421449597
field sqrsum 0.00013321706093194
field min 8.496e-007
field max 0.000262956377
statistic Basic.rack[6].node[0].app 	hops
field count 199732
field mean 4.2520427372679
field stddev 0.82907121574665
field sum 849269
field sqrsum 3748415
field min 3
field max 5
statistic Basic.rack[6].node[1].app 	throughput
field count 199422
field mean 99711.5
field stddev 57568.317028553
field sum 19884666753
field sqrsum 2.6436333037001e+015
field min 1
field max 199422
statistic Basic.rack[6].node[1].app 	"End-to-End Delay"
field count 199422
field mean 1.7279368763881e-005
field stddev 1.9242789116451e-005
field sum 3.4458862776307
field sqrsum 0.00013338533132942
field min 8.496e-007
field max 0.000230447618
statistic Basic.rack[6].node[1].app 	hops
field count 199422
field mean 4.2511809128381
field stddev 0.8288875118336
field sum 847779
field sqrsum 3741075
field min 3
field max 5
statistic Basic.rack[6].node[2].app 	throughput
field count 200229
field mean 100115
field stddev 57801.277862172
field sum 20045926335
field sqrsum 2.6758572047293e+015
field min 1
field max 200229
statistic Basic.rack[6].node[2].app 	"End-to-End Delay"
field count 200229
field mean 1.7250540620633e-005
field stddev 1.9261393052468e-005
field sum 3.4540584979287
field sqrsum 0.0001338692171767
field min 8.496e-007
field max 0.00025038754
statistic Basic.rack[6].node[2].app 	hops
field count 200229
field mean 4.2530952059891
field stddev 0.8287168102926
field sum 851593
field sqrsum 3759417
field min 3
field max 5
statistic Basic.rack[6].node[3].app 	throughput
field count 199965
field mean 99983
field stddev 57725.067626639
field sum 19993100595
field sqrsum 2.6652869046863e+015
field min 1
field max 199965
statistic Basic.rack[6].node[3].app 	"End-to-End Delay"
field count 199965
field mean 1.7252802521845e-005
field stddev 1.9238197990132e-005
field sum 3.4499566562807
field sqrsum 0.00013352974938381
field min 8.496e-007
field max 0.00024013008
statistic Basic.rack[6].node[3].app 	hops
field count 199965
field mean 4.2491035931288
field stddev 0.82958552137803
field sum 849672
field sqrsum 3747962
field min 3
field max 5
statistic Basic.rack[6].node[4].app 	throughput
field count 200827
field mean 100414
field stddev 57973.90559266
field sum 20165842378
field sqrsum 2.6999038067785e+015
field min 1
field max 200827
statistic Basic.rack[6].node[4].app 	"End-to-End Delay"
field count 200827
field mean 1.7247976484988e-005
field stddev 1.9245991827787e-005
field sum 3.4638593735508
field sqrsum 0.00013413216248374
field min 8.496e-007
field max 0.000259469578
statistic Basic.rack[6].node[4].app 	hops
field count 200827
field mean 4.2479298102347
field stddev 0.83021383444147
field sum 853099
field sqrsum 3762325
field min 3
field max 5
statistic Basic.rack[6].node[5].app 	throughput
field count 200571
field mean 100286
field stddev 57900.004758204
field sum 20114463306
field sqrsum 2.6895920513196e+015
field min 1
field max 200571
statistic Basic.rack[6].node[5].app 	"End-to-End Delay"
field count 200571
field mean 1.7249488272741e-005
field stddev 1.9255466549159e-005
field sum 3.4597471123519
field sqrsum 0.00013404480625177
field min 8.496e-007
field max 0.000242055191
statistic Basic.rack[6].node[5].app 	hops
field count 200571
field mean 4.2489642071885
field stddev 0.82918354861991
field sum 852219
field sqrsum 3758949
field min 3
field max 5
statistic Basic.rack[6].node[6].app 	throughput
field count 199930
field mean 99965.5
field stddev 57714.963996928
field sum 19986102415
field sqrsum 2.6638876325881e+015
field min 1
field max 199930
statistic Basic.rack[6].node[6].app 	"End-to-End Delay"
field count 199930
field mean 1.7222278838972e-005
field stddev 1.9213056457388e-005
field sum 3.4432502082757
field sqrsum 0.000133102713837
field min 8.496e-007
field max 0.00026755865
statistic Basic.rack[6].node[6].app 	hops
field count 199930
field mean 4.2505827039464
field stddev 0.82857045769877
field sum 849819
field sqrsum 3749483
field min 3
field max 5
statistic Basic.rack[6].node[7].app 	throughput
field count 199745
field mean 99873
field stddev 57661.559097028
field sum 19949132385
field sqrsum 2.6564996152053e+015
field min 1
field max 199745
statistic Basic.rack[6].node[7].app 	"End-to-End Delay"
field count 199745
field mean 1.7173659637541e-005
field stddev 1.9119607470857e-005
field sum 3.4303526443007
field sqrsum 0.00013193000351409
field min 8.496e-007
field max 0.000241309784
statistic Basic.rack[6].node[7].app 	hops
field count 199745
field mean 4.2491676888032
field stddev 0.82909256755978
field sum 848750
field sqrsum 3743784
field min 3
field max 5
statistic Basic.rack[6].node[8].app 	throughput
field count 200271
field mean 100136
field stddev 57813.402217825
field sum 20054336856
field sqrsum 2.6775414157709e+015
field min 1
field max 200271
statistic Basic.rack[6].node[8].app 	"End-to-End Delay"
field count 200271
field mean 1.7181238349051e-005
field stddev 1.9149569249308e-005
field sum 3.4409037854028
field sqrsum 0.00013255919918062
field min 8.496e-007
field max 0.000222179638
statistic Basic.rack[6].node[8].app 	hops
field count 200271
field mean 4.2496667016193
field stddev 0.82960710070526
field sum 851085
field sqrsum 3754663
field min 3
field max 5
statistic Basic.rack[6].node[9].app 	throughput
field count 199557
field mean 99779
field stddev 57607.288171724
field sum 19911597903
field sqrsum 2.6490057990186e+015
field min 1
field max 199557
statistic Basic.rack[6].node[9].app 	"End-to-End Delay"
field count 199557
field mean 1.7215589064412e-005
field stddev 1.9169784574719e-005
field sum 3.4354913069268
field sqrsum 0.00013247697329819
field min 8.496e-007
field max 0.000232152099
statistic Basic.rack[6].node[9].app 	hops
field count 199557
field mean 4.2493623375777
field stddev 0.82990068611712
field sum 847990
field sqrsum 3740858
field min 3
field max 5
statistic Basic.rack[6].eps.queue[0] 	dropsum
field count 0
field mean nan
field stddev nan
field sum 0
field sqrsum 0
field min nan
field max nan
statistic Basic.rack[6].eps.queue[1] 	dropsum
field count 0
field mean nan
field stddev nan
field sum 0
field sqrsum 0
field min nan
field max nan
statistic Basic.rack[6].eps.queue[2] 	dropsum
field count 0
field mean nan
field stddev nan
field sum 0
field sqrsum 0
field min nan
field max nan
statistic Basic.rack[6].eps.queue[3] 	dropsum
field count 0
field mean nan
field stddev nan
field sum 0
field sqrsum 0
field min nan
field max nan
statistic Basic.rack[7].node[0].app 	throughput
field count 200261
field mean 100131
field stddev 57810.515466479
field sum 20052334191
field sqrsum 2.6771403490606e+015
field min 1
field max 200261
statistic Basic.rack[7].node[0].app 	"End-to-End Delay"
field count 200261
field mean 1.717420233281e-005
field stddev 1.9074689612538e-005
field sum 3.4393229333708
field sqrsum 0.00013193098409231
field min 8.496e-007
field max 0.000274980082
statistic Basic.rack[7].node[0].app 	hops
field count 200261
field mean 4.2517065229875
field stddev 0.82892273446276
field sum 851451
field sqrsum 3757721
field min 3
field max 5
statistic Basic.rack[7].node[1].app 	throughput
field count 199661
field mean 99831
field stddev 57637.310385722
field sum 19932357291
field sqrsum 2.6531495701713e+015
field min 1
field max 199661
statistic Basic.rack[7].node[1].app 	"End-to-End Delay"
field count 199661
field mean 1.7131254111212e-005
field stddev 1.9089883886442e-005
field sum 3.4204433270987
field sqrsum 0.00013135731312239
field min 8.496e-007
field max 0.000272094645
statistic Basic.rack[7].node[1].app 	hops
field count 199661
field mean 4.2473392400118
field stddev 0.82966691212251
field sum 848028
field sqrsum 3739298
field min 3
field max 5
statistic Basic.rack[7].node[2].app 	throughput
field count 199616
field mean 99808.5
field stddev 57624.320004665
field sum 19923373536
field sqrsum 2.6513560622993e+015
field min 1
field max 199616
statistic Basic.rack[7].node[2].app 	"End-to-End Delay"
field count 199616
field mean 1.7167904564352e-005
field stddev 1.899164158138e-005
field sum 3.4269884375177
field sqrsum 0.00013083183768633
field min 8.496e-007
field max 0.000268814307
statistic Basic.rack[7].node[2].app 	hops
field count 199616
field mean 4.2508967217057
field stddev 0.82851559475895
field sum 848547
field sqrsum 3744109
field min 3
field max 5
statistic Basic.rack[7].node[3].app 	throughput
field count 200641
field mean 100321
field stddev 57920.212017625
field sum 20128505761
field sqrsum 2.6924090590971e+015
field min 1
field max 200641
statistic Basic.rack[7].node[3].app 	"End-to-End Delay"
field count 200641
field mean 1.7165911487905e-005
field stddev 1.9012689748103e-005
field sum 3.4441856468448
field sqrsum 0.0001316504089709
field min 8.496e-007
field max 0.000242186766
statistic Basic.rack[7].node[3].app 	hops
field count 200641
field mean 4.2503875080367
field stddev 0.82852189263243
field sum 852802
field sqrsum 3762468
field min 3
field max 5
statistic Basic.rack[7].node[4].app 	throughput
field count 199262
field mean 99631.5
field stddev 57522.129007018
field sum 19852771953
field sqrsum 2.6372753141898e+015
field min 1
field max 199262
statistic Basic.rack[7].node[4].app 	"End-to-End Delay"
field count 199262
field mean 1.7158975616141e-005
field stddev 1.9046807453267e-005
field sum 3.4191317992236
field sqrsum 0.00013095687893761
field min 8.496e-007
field max 0.000278838596
statistic Basic.rack[7].node[4].app 	hops
field count 199262
field mean 4.2505043610924
field stddev 0.82887133432694
field sum 846964
field sqrsum 3736922
field min 3
field max 5
statistic Basic.rack[7].node[5].app 	throughput
field count 199849
field mean 99925
field stddev 57691.581311025
field sum 19969911325
field sqrsum 2.6606511955637e+015
field min 1
field max 199849
statistic Basic.rack[7].node[5].app 	"End-to-End Delay"
field count 199849
field mean 1.7238560991181e-005
field stddev 1.9115687458963e-005
field sum 3.4451091755266
field sqrsum 0.00013241508380428
field min 8.496e-007
field max 0.00026736301
statistic Basic.rack[7].node[5].app 	hops
field count 199849
field mean 4.2494683486032
field stddev 0.82993132693364
field sum 849252
field sqrsum 3746522
field min 3
field max 5
statistic Basic.rack[7].node[6].app 	throughput
field count 199562
field mean 99781.5
field stddev 57608.731547397
field sum 19912595703
field sqrsum 2.6492049199866e+015
field min 1
field max 199562
statistic Basic.rack[7].node[6].app 	"End-to-End Delay"
field count 199562
field mean 1.7121851880812e-005
field stddev 1.8976515313453e-005
field sum 3.4168710050386
field sqrsum 0.00013036669846188
field min 8.496e-007
field max 0.000246150319
statistic Basic.rack[7].node[6].app 	hops
field count 199562
field mean 4.2490804862649
field stddev 0.82875653205023
field sum 847955
field sqrsum 3740095
field min 3
field max 5
statistic Basic.rack[7].node[7].app 	throughput
field count 200227
field mean 100114
field stddev 57800.700511903
field sum 20045525878
field sqrsum 2.6757770218248e+015
field min 1
field max 200227
statistic Basic.rack[7].node[7].app 	"End-to-End Delay"
field count 200227
field mean 1.7273977766594e-005
field stddev 1.9205553936325e-005
field sum 3.4587167462718
field sqrsum 0.00013359981742252
field min 8.496e-007
field max 0.000268908807
statistic Basic.rack[7].node[7].app 	hops
field count 200227
field mean 4.2517792305733
field stddev 0.82906788547391
field sum 851321
field sqrsum 3757255
field min 3
field max 5
statistic Basic.rack[7].node[8].app 	throughput
field count 199487
field mean 99744
field stddev 57587.080912302
field sum 19897631328
field sqrsum 2.6462191530296e+015
field min 1
field max 199487
statistic Basic.rack[7].node[8].app 	"End-to-End Delay"
field count 199487
field mean 1.7185206157994e-005
field stddev 1.9055956725857e-005
field sum 3.4282252208397
field sqrsum 0.00013135400596752
field min 8.496e-007
field max 0.000248608458
statistic Basic.rack[7].node[8].app 	hops
field count 199487
field mean 4.2512093519878
field stddev 0.82841078475591
field sum 848061
field sqrsum 3742185
field min 3
field max 5
statistic Basic.rack[7].node[9].app 	throughput
field count 200469
field mean 100235
field stddev 57870.559894475
field sum 20094010215
field sqrsum 2.6854907871973e+015
field min 1
field max 200469
statistic Basic.rack[7].node[9].app 	"End-to-End Delay"
field count 200469
field mean 1.7181055433996e-005
field stddev 1.9067429465904e-005
field sum 3.4442690017977
field sqrsum 0.00013205969923042
field min 8.496e-007
field max 0.000275531527
statistic Basic.rack[7].node[9].app 	hops
field count 200469
field mean 4.2514254074196
field stddev 0.82882721498318
field sum 852279
field sqrsum 3761113
field min 3
field max 5
statistic Basic.rack[7].eps.queue[0] 	dropsum
field count 0
field mean nan
field stddev nan
field sum 0
field sqrsum 0
field min nan
field max nan
statistic Basic.rack[7].eps.queue[1] 	dropsum
field count 0
field mean nan
field stddev nan
field sum 0
field sqrsum 0
field min nan
field max nan
statistic Basic.rack[7].eps.queue[2] 	dropsum
field count 0
field mean nan
field stddev nan
field sum 0
field sqrsum 0
field min nan
field max nan
statistic Basic.rack[7].eps.queue[3] 	dropsum
field count 0
field mean nan
field stddev nan
field sum 0
field sqrsum 0
field min nan
field max nan
statistic Basic.rack[8].node[0].app 	throughput
field count 172566
field mean 86283.5
field stddev 49815.657613847
field sum 14889598461
field sqrsum 1.7129639285468e+015
field min 1
field max 172566
statistic Basic.rack[8].node[0].app 	"End-to-End Delay"
field count 172566
field mean 0.00028733734632294
field stddev 0.00017673228788755
field sum 49.584656505565
field sqrsum 0.019637470871136
field min 8.992e-006
field max 0.000419222004
statistic Basic.rack[8].node[0].app 	hops
field count 172566
field mean 3.9485761969333
field stddev 0.99867981459119
field sum 681390
field sqrsum 2862630
field min 3
field max 5
statistic Basic.rack[8].node[1].app 	throughput
field count 171775
field mean 85888
field stddev 49587.315582381
field sum 14753411200
field sqrsum 1.6895163903904e+015
field min 1
field max 171775
statistic Basic.rack[8].node[1].app 	"End-to-End Delay"
field count 171775
field mean 0.00028698710285335
field stddev 0.00017685445288565
field sum 49.297209592634
field sqrsum 0.019520324216251
field min 8.992e-006
field max 0.000419110912
statistic Basic.rack[8].node[1].app 	hops
field count 171775
field mean 3.9484267210013
field stddev 0.99867211987309
field sum 678241
field sqrsum 2849303
field min 3
field max 5
statistic Basic.rack[8].node[2].app 	throughput
field count 171542
field mean 85771.5
field stddev 49520.05427602
field sum 14713414653
field sqrsum 1.6826506220748e+015
field min 1
field max 171542
statistic Basic.rack[8].node[2].app 	"End-to-End Delay"
field count 171542
field mean 0.00028675013420885
field stddev 0.00017701373197313
field sum 49.189691522454
field sqrsum 0.019480192548229
field min 8.992e-006
field max 0.000419214219
statistic Basic.rack[8].node[2].app 	hops
field count 171542
field mean 3.9462055939653
field stddev 0.99855494316531
field sum 676940
field sqrsum 2842390
field min 3
field max 5
statistic Basic.rack[8].node[3].app 	throughput
field count 171549
field mean 85775
field stddev 49522.075001963
field sum 14714615475
field sqrsum 1.6828566182857e+015
field min 1
field max 171549
statistic Basic.rack[8].node[3].app 	"End-to-End Delay"
field count 171549
field mean 0.00028754940080571
field stddev 0.00017657773836682
field sum 49.328812158818
field sqrsum 0.019533285157491
field min 8.992e-006
field max 0.000419187944
statistic Basic.rack[8].node[3].app 	hops
field count 171549
field mean 3.9499093553445
field stddev 0.99874758671258
field sum 677603
field sqrsum 2847589
field min 3
field max 5
statistic Basic.rack[8].node[4].app 	throughput
field count 172721
field mean 86361
field stddev 49860.402259709
field sum 14916358281
field sqrsum 1.7175838512212e+015
field min 1
field max 172721
statistic Basic.rack[8].node[4].app 	"End-to-End Delay"
field count 172721
field mean 0.00028669693788346
field stddev 0.00017706801628252
field sum 49.51858180817
field sqrsum 0.019612130163174
field min 8.992e-006
field max 0.000419139166
statistic Basic.rack[8].node[4].app 	hops
field count 172721
field mean 3.945791189259
field stddev 0.99853251201043
field sum 681521
field sqrsum 2861353
field min 3
field max 5
statistic Basic.rack[8].node[5].app 	throughput
field count 171477
field mean 85739
field stddev 49501.290392272
field sum 14702266503
field sqrsum 1.6807386028455e+015
field min 1
field max 171477
statistic Basic.rack[8].node[5].app 	"End-to-End Delay"
field count 171477
field mean 0.00028714534439994
field stddev 0.00017681044676299
field sum 49.238822221668
field sqrsum 0.019499369973767
field min 8.992e-006
field max 0.000419204706
statistic Basic.rack[8].node[5].app 	hops
field count 171477
field mean 3.9469841436461
field stddev 0.99859658236139
field sum 676817
field sqrsum 2842381
field min 3
field max 5
statistic Basic.rack[8].node[6].app 	throughput
field count 172253
field mean 86127
field stddev 49725.302296718
field sum 14835634131
field sqrsum 1.7036599358561e+015
field min 1
field max 172253
statistic Basic.rack[8].node[6].app 	"End-to-End Delay"
field count 172253
field mean 0.00028748848054977
field stddev 0.00017669841975625
field sum 49.52075324014
field sqrsum 0.019614755157866
field min 8.992e-006
field max 0.000419141404
statistic Basic.rack[8].node[6].app 	hops
field count 172253
field mean 3.9496612540856
field stddev 0.99873510071322
field sum 680341
field sqrsum 2858933
field min 3
field max 5
statistic Basic.rack[8].node[7].app 	throughput
field count 172496
field mean 86248.5
field stddev 49795.450354425
field sum 14877521256
field sqrsum 1.7108802302237e+015
field min 1
field max 172496
statistic Basic.rack[8].node[7].app 	"End-to-End Delay"
field count 172496
field mean 0.00028694585167088
field stddev 0.00017695039041369
field sum 49.49701162982
field sqrsum 0.019604029115232
field min 8.992e-006
field max 0.000419188548
statistic Basic.rack[8].node[7].app 	hops
field count 172496
field mean 3.9444161024024
field stddev 0.99845691428638
field sum 680396
field sqrsum 2855728
field min 3
field max 5
statistic Basic.rack[8].node[8].app 	throughput
field count 172221
field mean 86111
field stddev 49716.064692411
field sum 14830122531
field sqrsum 1.7027106316484e+015
field min 1
field max 172221
statistic Basic.rack[8].node[8].app 	"End-to-End Delay"
field count 172221
field mean 0.00028669820587736
field stddev 0.00017707543309887
field sum 49.375451714404
field sqrsum 0.019555933626115
field min 8.992e-006
field max 0.000419213394
statistic Basic.rack[8].node[8].app 	hops
field count 172221
field mean 3.94511122337
field stddev 0.99849537366621
field sum 679431
field sqrsum 2852133
field min 3
field max 5
statistic Basic.rack[8].node[9].app 	throughput
field count 172683
field mean 86342
field stddev 49849.432604594
field sum 14909795586
field sqrsum 1.7164504573834e+015
field min 1
field max 172683
statistic Basic.rack[8].node[9].app 	"End-to-End Delay"
field count 172683
field mean 0.00028666646755266
field stddev 0.00017708805234142
field sum 49.502425616395
field sqrsum 0.019606023792846
field min 8.992e-006
field max 0.000419176247
statistic Basic.rack[8].node[9].app 	hops
field count 172683
field mean 3.9433470579038
field stddev 0.99839682319049
field sum 680949
field sqrsum 2857347
field min 3
field max 5
statistic Basic.rack[8].eps.queue[0] 	dropsum
field count 0
field mean nan
field stddev nan
field sum 0
field sqrsum 0
field min nan
field max nan
statistic Basic.rack[8].eps.queue[1] 	dropsum
field count 279421
field mean 139711
field stddev 80662.039121055
field sum 39038187331
field sqrsum 7.272072574206e+015
field min 1
field max 279421
statistic Basic.rack[8].eps.queue[2] 	dropsum
field count 0
field mean nan
field stddev nan
field sum 0
field sqrsum 0
field min nan
field max nan
statistic Basic.rack[8].eps.queue[3] 	dropsum
field count 0
field mean nan
field stddev nan
field sum 0
field sqrsum 0
field min nan
field max nan
statistic Basic.rack[9].node[0].app 	throughput
field count 171496
field mean 85748.5
field stddev 49506.775219829
field sum 14705524756
field sqrsum 1.6812973508782e+015
field min 1
field max 171496
statistic Basic.rack[9].node[0].app 	"End-to-End Delay"
field count 171496
field mean 0.00028729882469397
field stddev 0.00017681746309008
field sum 49.270599239717
field sqrsum 0.019517076147456
field min 8.992e-006
field max 0.000419209658
statistic Basic.rack[9].node[0].app 	hops
field count 171496
field mean 3.9457829920231
field stddev 0.99853208760634
field sum 676686
field sqrsum 2841048
field min 3
field max 5
statistic Basic.rack[9].node[1].app 	throughput
field count 172212
field mean 86106.5
field stddev 49713.4666162
field sum 14828572578
field sqrsum 1.7024437033926e+015
field min 1
field max 172212
statistic Basic.rack[9].node[1].app 	"End-to-End Delay"
field count 172212
field mean 0.00028697484576556
field stddev 0.00017697377623966
field sum 49.420512138979
field sqrsum 0.019576043715089
field min 8.992e-006
field max 0.000419143514
statistic Basic.rack[9].node[1].app 	hops
field count 172212
field mean 3.945880658723
field stddev 0.99853737372323
field sum 679528
field sqrsum 2853044
field min 3
field max 5
statistic Basic.rack[9].node[2].app 	throughput
field count 172108
field mean 86054.5
field stddev 49683.444402202
field sum 14810667886
field sqrsum 1.6993612225718e+015
field min 1
field max 172108
statistic Basic.rack[9].node[2].app 	"End-to-End Delay"
field count 172108
field mean 0.00028652096324501
field stddev 0.00017713956461947
field sum 49.312549942172
field sqrsum 0.019529525961826
field min 8.992e-006
field max 0.000419123891
statistic Basic.rack[9].node[2].app 	hops
field count 172108
field mean 3.943349524717
field stddev 0.99839697282301
field sum 678682
field sqrsum 2847836
field min 3
field max 5
statistic Basic.rack[9].node[3].app 	throughput
field count 171867
field mean 85934
field stddev 49613.873694764
field sum 14769218778
field sqrsum 1.6922324722186e+015
field min 1
field max 171867
statistic Basic.rack[9].node[3].app 	"End-to-End Delay"
field count 171867
field mean 0.00028759412516172
field stddev 0.00017669833135988
field sum 49.42793950917
field sqrsum 0.019581236885968
field min 8.992e-006
field max 0.000419216899
statistic Basic.rack[9].node[3].app 	hops
field count 171867
field mean 3.9431129885318
field stddev 0.99838352729967
field sum 677691
field sqrsum 2843523
field min 3
field max 5
statistic Basic.rack[9].node[4].app 	throughput
field count 172463
field mean 86232
field stddev 49785.924074983
field sum 14871829416
field sqrsum 1.7098985016575e+015
field min 1
field max 172463
statistic Basic.rack[9].node[4].app 	"End-to-End Delay"
field count 172463
field mean 0.00028709947488086
field stddev 0.00017691741146335
field sum 49.514036736377
field sqrsum 0.019613474962576
field min 8.992e-006
field max 0.000419153745
statistic Basic.rack[9].node[4].app 	hops
field count 172463
field mean 3.9446663922117
field stddev 0.99847081703692
field sum 680309
field sqrsum 2855527
field min 3
field max 5
statistic Basic.rack[9].node[5].app 	throughput
field count 172659
field mean 86330
field stddev 49842.504401364
field sum 14905651470
field sqrsum 1.7157348866563e+015
field min 1
field max 172659
statistic Basic.rack[9].node[5].app 	"End-to-End Delay"
field count 172659
field mean 0.0002870098798478
field stddev 0.00017689285359962
field sum 49.554838844641
field sqrsum 0.019625383919
field min 8.992e-006
field max 0.000419142962
statistic Basic.rack[9].node[5].app 	hops
field count 172659
field mean 3.946397233854
field stddev 0.9985652300259
field sum 681381
field sqrsum 2861163
field min 3
field max 5
statistic Basic.rack[9].node[6].app 	throughput
field count 171819
field mean 85910
field stddev 49600.017288303
field sum 14760970290
field sqrsum 1.6908150231618e+015
field min 1
field max 171819
statistic Basic.rack[9].node[6].app 	"End-to-End Delay"
field count 171819
field mean 0.00028794931683009
field stddev 0.00017656499088935
field sum 49.475163668429
field sqrsum 0.019602799406041
field min 8.992e-006
field max 0.000419456553
statistic Basic.rack[9].node[6].app 	hops
field count 171819
field mean 3.9477182383788
field stddev 0.99863527957166
field sum 678293
field sqrsum 2849059
field min 3
field max 5
statistic Basic.rack[9].node[7].app 	throughput
field count 172131
field mean 86066
field stddev 49690.083930297
field sum 14814626646
field sqrsum 1.700042604344e+015
field min 1
field max 172131
statistic Basic.rack[9].node[7].app 	"End-to-End Delay"
field count 172131
field mean 0.00028711110920717
field stddev 0.00017693338442229
field sum 49.420722338939
field sqrsum 0.019577840787457
field min 8.992e-006
field max 0.000419211466
statistic Basic.rack[9].node[7].app 	hops
field count 172131
field mean 3.9490678611058
field stddev 0.99870501736985
field sum 679757
field sqrsum 2856091
field min 3
field max 5
statistic Basic.rack[9].node[8].app 	throughput
field count 171784
field mean 85892.5
field stddev 49589.913658593
field sum 14754957220
field sqrsum 1.6897819657061e+015
field min 1
field max 171784
statistic Basic.rack[9].node[8].app 	"End-to-End Delay"
field count 171784
field mean 0.0002869943681514
field stddev 0.0001769706465519
field sum 49.301040538521
field sqrsum 0.019529125715697
field min 8.992e-006
field max 0.000419192579
statistic Basic.rack[9].node[8].app 	hops
field count 171784
field mean 3.9474921995064
field stddev 0.99862342058225
field sum 678116
field sqrsum 2848168
field min 3
field max 5
statistic Basic.rack[9].node[9].app 	throughput
field count 171892
field mean 85946.5
field stddev 49621.090573129
field sum 14773515778
field sqrsum 1.6929710405799e+015
field min 1
field max 171892
statistic Basic.rack[9].node[9].app 	"End-to-End Delay"
field count 171892
field mean 0.00028779156834338
field stddev 0.00017664154096693
field sum 49.46906826568
field sqrsum 0.019600163944329
field min 8.992e-006
field max 0.000419229544
statistic Basic.rack[9].node[9].app 	hops
field count 171892
field mean 3.9491657552417
field stddev 0.99871000904498
field sum 678830
field sqrsum 2852260
field min 3
field max 5
statistic Basic.rack[9].eps.queue[0] 	dropsum
field count 280233
field mean 140117
field stddev 80896.443330347
field sum 39265407261
field sqrsum 7.3356550037836e+015
field min 1
field max 280233
statistic Basic.rack[9].eps.queue[1] 	dropsum
field count 0
field mean nan
field stddev nan
field sum 0
field sqrsum 0
field min nan
field max nan
statistic Basic.rack[9].eps.queue[2] 	dropsum
field count 0
field mean nan
field stddev nan
field sum 0
field sqrsum 0
field min nan
field max nan
statistic Basic.rack[9].eps.queue[3] 	dropsum
field count 0
field mean nan
field stddev nan
field sum 0
field sqrsum 0
field min nan
field max nan
statistic Basic.rack[10].node[0].app 	throughput
field count 200314
field mean 100157.5
field stddev 57825.815248613
field sum 20062949455
field sqrsum 2.6792664590691e+015
field min 1
field max 200314
statistic Basic.rack[10].node[0].app 	"End-to-End Delay"
field count 200314
field mean 1.7201795613909e-005
field stddev 1.9057196709325e-005
field sum 3.4457604866046
field sqrsum 0.00013202229123027
field min 8.496e-007
field max 0.000248473199
statistic Basic.rack[10].node[0].app 	hops
field count 200314
field mean 4.2472218616772
field stddev 0.83005248627524
field sum 850778
field sqrsum 3751456
field min 3
field max 5
statistic Basic.rack[10].node[1].app 	throughput
field count 200547
field mean 100274
field stddev 57893.076554973
field sum 20109649878
field sqrsum 2.6886266726055e+015
field min 1
field max 200547
statistic Basic.rack[10].node[1].app 	"End-to-End Delay"
field count 200547
field mean 1.7112958516247e-005
field stddev 1.8931837862946e-005
field sum 3.4319524915577
field sqrsum 0.00013060945190027
field min 8.496e-007
field max 0.000234738609
statistic Basic.rack[10].node[1].app 	hops
field count 200547
field mean 4.2530728457668
field stddev 0.82713736634595
field sum 852941
field sqrsum 3764825
field min 3
field max 5
statistic Basic.rack[10].node[2].app 	throughput
field count 199515
field mean 99758
field stddev 57595.163816071
field sum 19903217370
field sqrsum 2.6473335767895e+015
field min 1
field max 199515
statistic Basic.rack[10].node[2].app 	"End-to-End Delay"
field count 199515
field mean 1.720235223773e-005
field stddev 1.9031562196515e-005
field sum 3.4321273067107
field sqrsum 0.00013130470540794
field min 8.496e-007
field max 0.000278118129
statistic Basic.rack[10].node[2].app 	hops
field count 199515
field mean 4.2486479713305
field stddev 0.8304969271805
field sum 847669
field sqrsum 3739057
field min 3
field max 5
statistic Basic.rack[10].node[3].app 	throughput
field count 199847
field mean 99924
field stddev 57691.003960756
field sum 19969511628
field sqrsum 2.6605713167178e+015
field min 1
field max 199847
statistic Basic.rack[10].node[3].app 	"End-to-End Delay"
field count 199847
field mean 1.7181929819641e-005
field stddev 1.909469835946e-005
field sum 3.4337571286657
field sqrsum 0.00013186392553434
field min 8.496e-007
field max 0.000270223824
statistic Basic.rack[10].node[3].app 	hops
field count 199847
field mean 4.2510870816174
field stddev 0.82866594949026
field sum 849567
field sqrsum 3748815
field min 3
field max 5
statistic Basic.rack[10].node[4].app 	throughput
field count 200382
field mean 100191.5
field stddev 57845.445157765
field sum 20076573153
field sqrsum 2.681995946554e+015
field min 1
field max 200382
statistic Basic.rack[10].node[4].app 	"End-to-End Delay"
field count 200382
field mean 1.7122761981559e-005
field stddev 1.9013805512152e-005
field sum 3.4310932913887
field sqrsum 0.00013119249472458
field min 8.496e-007
field max 0.000247577889
statistic Basic.rack[10].node[4].app 	hops
field count 200382
field mean 4.2485402880498
field stddev 0.82807515694193
field sum 851331
field sqrsum 3754317
field min 3
field max 5
statistic Basic.rack[10].node[5].app 	throughput
field count 200044
field mean 100022.5
field stddev 57747.872962272
field sum 20008900990
field sqrsum 2.6684470627294e+015
field min 1
field max 200044
statistic Basic.rack[10].node[5].app 	"End-to-End Delay"
field count 200044
field mean 1.717263121729e-005
field stddev 1.9016145006905e-005
field sum 3.4352818392317
field sqrsum 0.00013133113172946
field min 8.496e-007
field max 0.000281275985
statistic Basic.rack[10].node[5].app 	hops
field count 200044
field mean 4.2519595688948
field stddev 0.82821490698946
field sum 850579
field sqrsum 3753845
field min 3
field max 5
statistic Basic.rack[10].node[6].app 	throughput
field count 199208
field mean 99604.5
field stddev 57506.54054975
field sum 19842013236
field sqrsum 2.6351317958158e+015
field min 1
field max 199208
statistic Basic.rack[10].node[6].app 	"End-to-End Delay"
field count 199208
field mean 1.7231924690779e-005
field stddev 1.9130660279004e-005
field sum 3.4327372538007
field sqrsum 0.00013205887852782
field min 8.496e-007
field max 0.00024575445
statistic Basic.rack[10].node[6].app 	hops
field count 199208
field mean 4.2504417493273
field stddev 0.82965445836397
field sum 846722
field sqrsum 3736062
field min 3
field max 5
statistic Basic.rack[10].node[7].app 	throughput
field count 200423
field mean 100212
field stddev 57857.280838283
field sum 20084789676
field sqrsum 2.6836425624185e+015
field min 1
field max 200423
statistic Basic.rack[10].node[7].app 	"End-to-End Delay"
field count 200423
field mean 1.7229830789269e-005
field stddev 1.9072914170859e-005
field sum 3.4532543762777
field sqrsum 0.00013240771306455
field min 8.496e-007
field max 0.000248078566
statistic Basic.rack[10].node[7].app 	hops
field count 200423
field mean 4.2501559202287
field stddev 0.83016294385758
field sum 851829
field sqrsum 3758531
field min 3
field max 5
statistic Basic.rack[10].node[8].app 	throughput
field count 200351
field mean 100176
field stddev 57836.496228593
field sum 20070361776
field sqrsum 2.6807513915762e+015
field min 1
field max 200351
statistic Basic.rack[10].node[8].app 	"End-to-End Delay"
field count 200351
field mean 1.7182047763733e-005
field stddev 1.9015143279413e-005
field sum 3.4424404515117
field sqrsum 0.00013158986253488
field min 8.496e-007
field max 0.000260562058
statistic Basic.rack[10].node[8].app 	hops
field count 200351
field mean 4.2501459937809
field stddev 0.82956485876773
field sum 851521
field sqrsum 3756965
field min 3
field max 5
statistic Basic.rack[10].node[9].app 	throughput
field count 200399
field mean 100200
field stddev 57850.352635053
field sum 20079979800
field sqrsum 2.6826786079534e+015
field min 1
field max 200399
statistic Basic.rack[10].node[9].app 	"End-to-End Delay"
field count 200399
field mean 1.7197663721824e-005
field stddev 1.9096273664305e-005
field sum 3.4463946121898
field sqrsum 0.00013234860689736
field min 8.496e-007
field max 0.000254576214
statistic Basic.rack[10].node[9].app 	hops
field count 200399
field mean 4.2509194157655
field stddev 0.8286780393948
field sum 851880
field sqrsum 3758888
field min 3
field max 5
statistic Basic.rack[10].eps.queue[0] 	dropsum
field count 0
field mean nan
field stddev nan
field sum 0
field sqrsum 0
field min nan
field max nan
statistic Basic.rack[10].eps.queue[1] 	dropsum
field count 0
field mean nan
field stddev nan
field sum 0
field sqrsum 0
field min nan
field max nan
statistic Basic.rack[10].eps.queue[2] 	dropsum
field count 0
field mean nan
field stddev nan
field sum 0
field sqrsum 0
field min nan
field max nan
statistic Basic.rack[10].eps.queue[3] 	dropsum
field count 0
field mean nan
field stddev nan
field sum 0
field sqrsum 0
field min nan
field max nan
statistic Basic.rack[11].node[0].app 	throughput
field count 200592
field mean 100296.5
field stddev 57906.06693603
field sum 20118675528
field sqrsum 2.6904369472336e+015
field min 1
field max 200592
statistic Basic.rack[11].node[0].app 	"End-to-End Delay"
field count 200592
field mean 1.7196774738323e-005
field stddev 1.9121207294209e-005
field sum 3.4495354383096
field sqrsum 0.00013266107931801
field min 8.496e-007
field max 0.000225105108
statistic Basic.rack[11].node[0].app 	hops
field count 200592
field mean 4.2499800590253
field stddev 0.82778026914577
field sum 852512
field sqrsum 3760608
field min 3
field max 5
statistic Basic.rack[11].node[1].app 	throughput
field count 199849
field mean 99925
field stddev 57691.581311025
field sum 19969911325
field sqrsum 2.6606511955637e+015
field min 1
field max 199849
statistic Basic.rack[11].node[1].app 	"End-to-End Delay"
field count 199849
field mean 1.7202754583154e-005
field stddev 1.917842306696e-005
field sum 3.4379533006887
field sqrsum 0.00013264874175662
field min 8.496e-007
field max 0.000266096664
statistic Basic.rack[11].node[1].app 	hops
[...]
field sqrsum 1.7072823950105e+015
field min 1
field max 172375
statistic Basic.rack[13].node[2].app 	"End-to-End Delay"
field count 172375
field mean 0.00028705683077602
field stddev 0.00017691178026137
field sum 49.481421205017
field sqrsum 0.019598903137558
field min 8.992e-006
field max 0.000419184074
statistic Basic.rack[13].node[2].app 	hops
field count 172375
field mean 3.9441856417694
field stddev 0.99844405986599
field sum 679879
field sqrsum 2853407
field min 3
field max 5
statistic Basic.rack[13].node[3].app 	throughput
field count 172647
field mean 86324
field stddev 49839.040299749
field sum 14903579628
field sqrsum 1.7153771758834e+015
field min 1
field max 172647
statistic Basic.rack[13].node[3].app 	"End-to-End Delay"
field count 172647
field mean 0.00028764648461451
field stddev 0.00017659717816346
field sum 49.661302629241
field sqrsum 0.019669134536264
field min 8.992e-006
field max 0.000419208614
statistic Basic.rack[13].node[3].app 	hops
field count 172647
field mean 3.9480037301546
field stddev 0.99865017121181
field sum 681611
field sqrsum 2863183
field min 3
field max 5
statistic Basic.rack[13].node[4].app 	throughput
field count 172570
field mean 86285.5
field stddev 49816.812314385
field sum 14890288735
field sqrsum 1.7130830480955e+015
field min 1
field max 172570
statistic Basic.rack[13].node[4].app 	"End-to-End Delay"
field count 172570
field mean 0.00028770276869571
field stddev 0.00017656184065801
field sum 49.648866793819
field sqrsum 0.019663796867907
field min 8.992e-006
field max 0.000419225012
statistic Basic.rack[13].node[4].app 	hops
field count 172570
field mean 3.9453207394101
field stddev 0.99850686323105
field sum 680844
field sqrsum 2858202
field min 3
field max 5
statistic Basic.rack[13].node[5].app 	throughput
field count 172008
field mean 86004.5
field stddev 49654.576888742
field sum 14793462036
field sqrsum 1.6964008097462e+015
field min 1
field max 172008
statistic Basic.rack[13].node[5].app 	"End-to-End Delay"
field count 172008
field mean 0.00028611755719809
field stddev 0.00017731668914142
field sum 49.214508778528
field sqrsum 0.019489242937543
field min 8.992e-006
field max 0.000419187479
statistic Basic.rack[13].node[5].app 	hops
field count 172008
field mean 3.9418631691549
field stddev 0.99831152601102
field sum 678032
field sqrsum 2844136
field min 3
field max 5
statistic Basic.rack[13].node[6].app 	throughput
field count 172397
field mean 86199
field stddev 49766.8715161
field sum 14860449003
field sqrsum 1.7079361713298e+015
field min 1
field max 172397
statistic Basic.rack[13].node[6].app 	"End-to-End Delay"
field count 172397
field mean 0.00028702892739957
field stddev 0.00017689938655115
field sum 49.482925996903
field sqrsum 0.01959788694659
field min 8.992e-006
field max 0.000419234789
statistic Basic.rack[13].node[6].app 	hops
field count 172397
field mean 3.9445059948839
field stddev 0.99846191621482
field sum 680021
field sqrsum 2854213
field min 3
field max 5
statistic Basic.rack[13].node[7].app 	throughput
field count 170910
field mean 85455.5
field stddev 49337.611590956
field sum 14605199505
field sqrsum 1.6641212999995e+015
field min 1
field max 170910
statistic Basic.rack[13].node[7].app 	"End-to-End Delay"
field count 170910
field mean 0.00028743835290346
field stddev 0.00017676077930096
field sum 49.12608889473
field sqrsum 0.019460666638481
field min 8.992e-006
field max 0.00041921089
statistic Basic.rack[13].node[7].app 	hops
field count 170910
field mean 3.9464981569247
field stddev 0.99857067206388
field sum 674496
field sqrsum 2832318
field min 3
field max 5
statistic Basic.rack[13].node[8].app 	throughput
field count 171406
field mean 85703.5
field stddev 49480.794457715
field sum 14690094121
field sqrsum 1.6786517453008e+015
field min 1
field max 171406
statistic Basic.rack[13].node[8].app 	"End-to-End Delay"
field count 171406
field mean 0.00028661376998029
field stddev 0.00017710097512433
field sum 49.127319857241
field sqrsum 0.019456642250932
field min 8.992e-006
field max 0.000419146939
statistic Basic.rack[13].node[8].app 	hops
field count 171406
field mean 3.9470613630795
field stddev 0.99860068020524
field sum 676550
field sqrsum 2841310
field min 3
field max 5
statistic Basic.rack[13].node[9].app 	throughput
field count 172325
field mean 86163
field stddev 49746.086906409
field sum 14848038975
field sqrsum 1.7057971602576e+015
field min 1
field max 172325
statistic Basic.rack[13].node[9].app 	"End-to-End Delay"
field count 172325
field mean 0.00028700461030007
field stddev 0.00017688819059775
field sum 49.45806946996
field sqrsum 0.019586614029726
field min 8.992e-006
field max 0.000419198778
statistic Basic.rack[13].node[9].app 	hops
field count 172325
field mean 3.9470129116495
field stddev 0.99859809492989
field sum 680169
field sqrsum 2856477
field min 3
field max 5
statistic Basic.rack[13].eps.queue[0] 	dropsum
field count 280207
field mean 140104
field stddev 80888.937776847
field sum 39258121528
field sqrsum 7.333613392038e+015
field min 1
field max 280207
statistic Basic.rack[13].eps.queue[1] 	dropsum
field count 0
field mean nan
field stddev nan
field sum 0
field sqrsum 0
field min nan
field max nan
statistic Basic.rack[13].eps.queue[2] 	dropsum
field count 0
field mean nan
field stddev nan
field sum 0
field sqrsum 0
field min nan
field max nan
statistic Basic.rack[13].eps.queue[3] 	dropsum
field count 0
field mean nan
field stddev nan
field sum 0
field sqrsum 0
field min nan
field max nan
statistic Basic.rack[14].node[0].app 	throughput
field count 199440
field mean 99720.5
field stddev 57573.513180976
field sum 19888256520
field sqrsum 2.644349216318e+015
field min 1
field max 199440
statistic Basic.rack[14].node[0].app 	"End-to-End Delay"
field count 199440
field mean 1.726384532369e-005
field stddev 1.9125784245124e-005
field sum 3.4431013113567
field sqrsum 0.00013239508172676
field min 8.496e-007
field max 0.000241090643
statistic Basic.rack[14].node[0].app 	hops
field count 199440
field mean 4.251875250702
field stddev 0.82885676579603
field sum 847994
field sqrsum 3742580
field min 3
field max 5
statistic Basic.rack[14].node[1].app 	throughput
field count 199958
field mean 99979.5
field stddev 57723.046900696
field sum 19991700861
field sqrsum 2.6650070110762e+015
field min 1
field max 199958
statistic Basic.rack[14].node[1].app 	"End-to-End Delay"
field count 199958
field mean 1.7244724146909e-005
field stddev 1.9322078907399e-005
field sum 3.4482205509677
field sqrsum 0.00013411610512236
field min 8.496e-007
field max 0.000252336033
statistic Basic.rack[14].node[1].app 	hops
field count 199958
field mean 4.2462517128597
field stddev 0.82972335333845
field sum 849072
field sqrsum 3743032
field min 3
field max 5
statistic Basic.rack[14].node[2].app 	throughput
field count 200287
field mean 100144
field stddev 57818.021019978
field sum 20057541328
field sqrsum 2.6781832058212e+015
field min 1
field max 200287
statistic Basic.rack[14].node[2].app 	"End-to-End Delay"
field count 200287
field mean 1.7273688800006e-005
field stddev 1.9252701155518e-005
field sum 3.4596953086867
field sqrsum 0.00013400101108134
field min 8.496e-007
field max 0.000222084503
statistic Basic.rack[14].node[2].app 	hops
field count 200287
field mean 4.2492223659049
field stddev 0.83033316439432
field sum 851064
field sqrsum 3754448
field min 3
field max 5
statistic Basic.rack[14].node[3].app 	throughput
field count 199145
field mean 99573
field stddev 57488.35401627
field sum 19829465085
field sqrsum 2.6326324927232e+015
field min 1
field max 199145
statistic Basic.rack[14].node[3].app 	"End-to-End Delay"
field count 199145
field mean 1.7216213253692e-005
field stddev 1.913800374142e-005
field sum 3.4285227884066
field sqrsum 0.00013196529562342
field min 8.496e-007
field max 0.000216345226
statistic Basic.rack[14].node[3].app 	hops
field count 199145
field mean 4.2519621381406
field stddev 0.82880727736035
field sum 846757
field sqrsum 3737175
field min 3
field max 5
statistic Basic.rack[14].node[4].app 	throughput
field count 200497
field mean 100249
field stddev 57878.642798244
field sum 20099623753
field sqrsum 2.6866162089447e+015
field min 1
field max 200497
statistic Basic.rack[14].node[4].app 	"End-to-End Delay"
field count 200497
field mean 1.7254698231693e-005
field stddev 1.9187952055602e-005
field sum 3.4595152313597
field sqrsum 0.0001335110082047
field min 8.496e-007
field max 0.000259962059
statistic Basic.rack[14].node[4].app 	hops
field count 200497
field mean 4.251405257934
field stddev 0.82873702481744
field sum 852394
field sqrsum 3761574
field min 3
field max 5
statistic Basic.rack[14].node[5].app 	throughput
field count 200014
field mean 100007.5
field stddev 57739.212708234
field sum 20002900105
field sqrsum 2.667246708701e+015
field min 1
field max 200014
statistic Basic.rack[14].node[5].app 	"End-to-End Delay"
field count 200014
field mean 1.7310642263325e-005
field stddev 1.9292135071942e-005
field sum 3.4623708016567
field sqrsum 0.00013437799588146
field min 8.496e-007
field max 0.000254219805
statistic Basic.rack[14].node[5].app 	hops
field count 200014
field mean 4.2491675582709
field stddev 0.82980806467501
field sum 849893
field sqrsum 3749063
field min 3
field max 5
statistic Basic.rack[14].node[6].app 	throughput
field count 199510
field mean 99755.5
field stddev 57593.720440398
field sum 19902219805
field sqrsum 2.6471345496036e+015
field min 1
field max 199510
statistic Basic.rack[14].node[6].app 	"End-to-End Delay"
field count 199510
field mean 1.716543644805e-005
field stddev 1.8999300190011e-005
field sum 3.4246762257505
field sqrsum 0.00013080350570711
field min 8.496e-007
field max 0.000208783377
statistic Basic.rack[14].node[6].app 	hops
field count 199510
field mean 4.2496215728535
field stddev 0.82941581958093
field sum 847842
field sqrsum 3740256
field min 3
field max 5
statistic Basic.rack[14].node[7].app 	throughput
field count 200188
field mean 100094.5
field stddev 57789.442181653
field sum 20037717766
field sqrsum 2.6742137753326e+015
field min 1
field max 200188
statistic Basic.rack[14].node[7].app 	"End-to-End Delay"
field count 200188
field mean 1.7211812374586e-005
field stddev 1.9164638733596e-005
field sum 3.4455982956437
field sqrsum 0.00013283034893231
field min 8.496e-007
field max 0.000220714494
statistic Basic.rack[14].node[7].app 	hops
field count 200188
field mean 4.2512837932344
field stddev 0.82833300282782
field sum 851056
field sqrsum 3755436
field min 3
field max 5
statistic Basic.rack[14].node[8].app 	throughput
field count 199700
field mean 99850.5
field stddev 57648.568715971
field sum 19940144850
field sqrsum 2.654704597745e+015
field min 1
field max 199700
statistic Basic.rack[14].node[8].app 	"End-to-End Delay"
field count 199700
field mean 1.7276260615907e-005
field stddev 1.916202972855e-005
field sum 3.4500692449965
field sqrsum 0.00013293044988467
field min 8.496e-007
field max 0.000215922727
statistic Basic.rack[14].node[8].app 	hops
field count 199700
field mean 4.2512268402604
field stddev 0.82932795885585
field sum 848970
field sqrsum 3746514
field min 3
field max 5
statistic Basic.rack[14].node[9].app 	throughput
field count 199727
field mean 99864
field stddev 57656.362944605
field sum 19945537128
field sqrsum 2.6557815111551e+015
field min 1
field max 199727
statistic Basic.rack[14].node[9].app 	"End-to-End Delay"
field count 199727
field mean 1.72779925219e-005
field stddev 1.9185379722766e-005
field sum 3.4508816124216
field sqrsum 0.00013313921212487
field min 8.496e-007
field max 0.000240686869
statistic Basic.rack[14].node[9].app 	hops
field count 199727
field mean 4.2507022085146
field stddev 0.82914778596225
field sum 848980
field sqrsum 3746070
field min 3
field max 5
statistic Basic.rack[14].eps.queue[0] 	dropsum
field count 0
field mean nan
field stddev nan
field sum 0
field sqrsum 0
field min nan
field max nan
statistic Basic.rack[14].eps.queue[1] 	dropsum
field count 0
field mean nan
field stddev nan
field sum 0
field sqrsum 0
field min nan
field max nan
statistic Basic.rack[14].eps.queue[2] 	dropsum
field count 0
field mean nan
field stddev nan
field sum 0
field sqrsum 0
field min nan
field max nan
statistic Basic.rack[14].eps.queue[3] 	dropsum
field count 0
field mean nan
field stddev nan
field sum 0
field sqrsum 0
field min nan
field max nan
statistic Basic.rack[15].node[0].app 	throughput
field count 200184
field mean 100092.5
field stddev 57788.287481115
field sum 20036917020
field sqrsum 2.6740534767935e+015
field min 1
field max 200184
statistic Basic.rack[15].node[0].app 	"End-to-End Delay"
field count 200184
field mean 1.7305291410401e-005
field stddev 1.9050548661218e-005
field sum 3.4642424556997
field sqrsum 0.00013260082105384
field min 8.496e-007
field max 0.000227366618
statistic Basic.rack[15].node[0].app 	hops
field count 200184
field mean 4.2531720816849
field stddev 0.82936153427396
field sum 851417
field sqrsum 3758917
field min 3
field max 5
statistic Basic.rack[15].node[1].app 	throughput
field count 199616
field mean 99808.5
field stddev 57624.320004665
field sum 19923373536
field sqrsum 2.6513560622993e+015
field min 1
field max 199616
statistic Basic.rack[15].node[1].app 	"End-to-End Delay"
field count 199616
field mean 1.7327593496927e-005
field stddev 1.9203574503442e-005
field sum 3.4588649034826
field sqrsum 0.00013354728049981
field min 8.496e-007
field max 0.000219396131
statistic Basic.rack[15].node[1].app 	hops
field count 199616
field mean 4.2518936357807
field stddev 0.82913496534073
field sum 848746
field sqrsum 3746006
field min 3
field max 5
statistic Basic.rack[15].node[2].app 	throughput
field count 200184
field mean 100092.5
field stddev 57788.287481115
field sum 20036917020
field sqrsum 2.6740534767935e+015
field min 1
field max 200184
statistic Basic.rack[15].node[2].app 	"End-to-End Delay"
field count 200184
field mean 1.7255083928979e-005
field stddev 1.9138107994626e-005
field sum 3.4541917212387
field sqrsum 0.00013292283047306
field min 8.496e-007
field max 0.000249534381
statistic Basic.rack[15].node[2].app 	hops
field count 200184
field mean 4.2478819486073
field stddev 0.82898082806593
field sum 850358
field sqrsum 3749788
field min 3
field max 5
statistic Basic.rack[15].node[3].app 	throughput
field count 199985
field mean 99993
field stddev 57730.841129331
field sum 19997100105
field sqrsum 2.666086708699e+015
field min 1
field max 199985
statistic Basic.rack[15].node[3].app 	"End-to-End Delay"
field count 199985
field mean 1.7250870792718e-005
field stddev 1.9035940246855e-005
field sum 3.4499153954817
field sqrsum 0.0001319816510773
field min 8.496e-007
field max 0.000232449003
statistic Basic.rack[15].node[3].app 	hops
field count 199985
field mean 4.2505487911593
field stddev 0.82929188429238
field sum 850046
field sqrsum 3750696
field min 3
field max 5
statistic Basic.rack[15].node[4].app 	throughput
field count 200097
field mean 100049
field stddev 57763.172744405
field sum 20019504753
field sqrsum 2.6705685682089e+015
field min 1
field max 200097
statistic Basic.rack[15].node[4].app 	"End-to-End Delay"
field count 200097
field mean 1.7263918420964e-005
field stddev 1.9094725977786e-005
field sum 3.4544582842797
field sqrsum 0.00013259420046355
field min 8.496e-007
field max 0.00021152327
statistic Basic.rack[15].node[4].app 	hops
field count 200097
field mean 4.2544865740116
field stddev 0.82739142891024
field sum 851310
field sqrsum 3758868
field min 3
field max 5
statistic Basic.rack[15].node[5].app 	throughput
field count 199980
field mean 99990.5
field stddev 57729.397753658
field sum 19996100190
field sqrsum 2.6658867426975e+015
field min 1
field max 199980
statistic Basic.rack[15].node[5].app 	"End-to-End Delay"
field count 199980
field mean 1.7264746955404e-005
field stddev 1.9094781839209e-005
field sum 3.4526040961418
field sqrsum 0.00013252281792991
field min 8.496e-007
field max 0.000215412998
statistic Basic.rack[15].node[5].app 	hops
field count 199980
field mean 4.2506850685069
field stddev 0.82799472590773
field sum 850052
field sqrsum 3750404
field min 3
field max 5
statistic Basic.rack[15].node[6].app 	throughput
field count 201087
field mean 100544
field stddev 58048.961127655
field sum 20218091328
field sqrsum 2.7104036266128e+015
field min 1
field max 201087
statistic Basic.rack[15].node[6].app 	"End-to-End Delay"
field count 201087
field mean 1.726416268981e-005
field stddev 1.9013989858932e-005
field sum 3.4715986828058
field sqrsum 0.00013263323007085
field min 8.496e-007
field max 0.000208727421
statistic Basic.rack[15].node[6].app 	hops
field count 201087
field mean 4.251214648386
field stddev 0.82978875683633
field sum 854864
field sqrsum 3772668
field min 3
field max 5
statistic Basic.rack[15].node[7].app 	throughput
field count 201108
field mean 100554.5
field stddev 58055.023305481
field sum 20222314386
field sqrsum 2.7112528751313e+015
field min 1
field max 201108
statistic Basic.rack[15].node[7].app 	"End-to-End Delay"
field count 201108
field mean 1.7255661361466e-005
field stddev 1.902593033874e-005
field sum 3.4702515450817
field sqrsum 0.00013267940908191
field min 8.496e-007
field max 0.00024100344
statistic Basic.rack[15].node[7].app 	hops
field count 201108
field mean 4.2497961294429
field stddev 0.82921070625516
field sum 854668
field sqrsum 3770444
field min 3
field max 5
statistic Basic.rack[15].node[8].app 	throughput
field count 200028
field mean 100014.5
field stddev 57743.254160118
field sum 20005700406
field sqrsum 2.6678068291077e+015
field min 1
field max 200028
statistic Basic.rack[15].node[8].app 	"End-to-End Delay"
field count 200028
field mean 1.7235617958874e-005
field stddev 1.9059221614075e-005
field sum 3.4476061890777
field sqrsum 0.00013208221671055
field min 8.496e-007
field max 0.00024246262
statistic Basic.rack[15].node[8].app 	hops
field count 200028
field mean 4.2511448397224
field stddev 0.82874285467292
field sum 850348
field sqrsum 3752334
field min 3
field max 5
statistic Basic.rack[15].node[9].app 	throughput
field count 199992
field mean 99996.5
field stddev 57732.861855273
field sum 19998500028
field sqrsum 2.6663666778999e+015
field min 1
field max 199992
statistic Basic.rack[15].node[9].app 	"End-to-End Delay"
field count 199992
field mean 1.7198799455326e-005
field stddev 1.8946502135017e-005
field sum 3.4396223006696
field sqrsum 0.00013094813205224
field min 8.496e-007
field max 0.00021107509
statistic Basic.rack[15].node[9].app 	hops
field count 199992
field mean 4.2473898955958
field stddev 0.83005523445953
field sum 849444
field sqrsum 3745712
field min 3
field max 5
statistic Basic.rack[15].eps.queue[0] 	dropsum
field count 0
field mean nan
field stddev nan
field sum 0
field sqrsum 0
field min nan
field max nan
statistic Basic.rack[15].eps.queue[1] 	dropsum
field count 0
field mean nan
field stddev nan
field sum 0
field sqrsum 0
field min nan
field max nan
statistic Basic.rack[15].eps.queue[2] 	dropsum
field count 0
field mean nan
field stddev nan
field sum 0
field sqrsum 0
field min nan
field max nan
statistic Basic.rack[15].eps.queue[3] 	dropsum
field count 0
field mean nan
field stddev nan
field sum 0
field sqrsum 0
field min nan
field max nan
