version 2
run Basic-47-20180510-17:46:33-18332
attr configname Basic
attr datetime 20180510-17:46:33
attr experiment Basic
attr inifile omnetpp.ini
attr iterationvars "$0=exponential(0.1 ms), $1=7, $2=5"
attr iterationvarsf exponential(0.1_ms),7,5-
attr measurement "$0=exponential(0.1 ms), $1=7, $2=5"
attr network Networks.Basic
attr processid 18332
attr repetition 0
attr replication #0
attr resultdir results
attr runnumber 47
attr seedset 47
param **.frameCapacity 50
param **.packetLength "1024 bytes"
param **.pattern 7
param **.sendIaTime "exponential(0.1 ms)"
param **.tp 5

statistic Basic.rack[0].node[0].app 	throughput
field count 99894
field mean 49947.5
field stddev 28837.05823242
field sum 4989455565
field sqrsum 3.322794459586e+014
field min 1
field max 99894
statistic Basic.rack[0].node[0].app 	"End-to-End Delay"
field count 99894
field mean 5.3676405552123e-006
field stddev 5.0857750310111e-006
field sum 0.53619508562238
field sqrsum 5.4618456871775e-006
field min 4e-007
field max 3.750006e-005
statistic Basic.rack[0].node[0].app 	hops
field count 99894
field mean 2.9982181111979
field stddev 0.70531490853132
field sum 299504
field sqrsum 947672
field min 2
field max 4
statistic Basic.rack[0].node[1].app 	throughput
field count 100166
field mean 50083.5
field stddev 28915.577869031
field sum 5016663861
field sqrsum 3.3500110708857e+014
field min 1
field max 100166
statistic Basic.rack[0].node[1].app 	"End-to-End Delay"
field count 100166
field mean 5.3336022278955e-006
field stddev 5.0691840472823e-006
field sum 0.53424560075938
field sqrsum 5.4233561604151e-006
field min 4e-007
field max 4.065498e-005
statistic Basic.rack[0].node[1].app 	hops
field count 100166
field mean 2.9997903480223
field stddev 0.70744904912923
field sum 300477
field sqrsum 951499
field min 2
field max 4
statistic Basic.rack[0].node[2].app 	throughput
field count 100267
field mean 50134
field stddev 28944.734057626
field sum 5026785778
field sqrsum 3.3601549533041e+014
field min 1
field max 100267
statistic Basic.rack[0].node[2].app 	"End-to-End Delay"
field count 100267
field mean 5.3671830644119e-006
field stddev 5.0879155877717e-006
field sum 0.53815134431939
field sqrsum 5.4839311955681e-006
field min 4e-007
field max 3.6955294e-005
statistic Basic.rack[0].node[2].app 	hops
field count 100267
field mean 2.9968883082171
field stddev 0.70577990781929
field sum 300489
field sqrsum 950477
field min 2
field max 4
statistic Basic.rack[0].node[3].app 	throughput
field count 100427
field mean 50214
field stddev 28990.922079161
field sum 5042841378
field sqrsum 3.3762663499273e+014
field min 1
field max 100427
statistic Basic.rack[0].node[3].app 	"End-to-End Delay"
field count 100427
field mean 5.3433100670974e-006
field stddev 5.0705053327429e-006
field sum 0.53661260010839
field sqrsum 5.4492424115922e-006
field min 4e-007
field max 3.7661061e-005
statistic Basic.rack[0].node[3].app 	hops
field count 100427
field mean 2.9975604170193
field stddev 0.70672225026348
field sum 301036
field sqrsum 952532
field min 2
field max 4
statistic Basic.rack[0].node[4].app 	throughput
field count 99994
field mean 49997.5
field stddev 28865.92574588
field sum 4999450015
field sqrsum 3.3327833634994e+014
field min 1
field max 99994
statistic Basic.rack[0].node[4].app 	"End-to-End Delay"
field count 99994
field mean 5.3211111516428e-006
field stddev 5.0683875253695e-006
field sum 0.53207918849737
field sqrsum 5.3999278943377e-006
field min 4e-007
field max 4.1824385e-005
statistic Basic.rack[0].node[4].app 	hops
field count 99994
field mean 2.9983799027942
field stddev 0.70852841602766
field sum 299820
field sqrsum 949172
field min 2
field max 4
statistic Basic.rack[0].node[5].app 	throughput
field count 99819
field mean 49910
field stddev 28815.407597325
field sum 4981966290
field sqrsum 3.3153158938977e+014
field min 1
field max 99819
statistic Basic.rack[0].node[5].app 	"End-to-End Delay"
field count 99819
field mean 5.3554910953262e-006
field stddev 5.0556322095869e-006
field sum 0.53457976564437
field sqrsum 5.4142270646102e-006
field min 4e-007
field max 3.7782045e-005
statistic Basic.rack[0].node[5].app 	hops
field count 99819
field mean 2.9971648684118
field stddev 0.70521423122432
field sum 299174
field sqrsum 946316
field min 2
field max 4
statistic Basic.rack[0].node[6].app 	throughput
field count 100256
field mean 50128.5
field stddev 28941.558631145
field sum 5025682896
field sqrsum 3.3590491817522e+014
field min 1
field max 100256
statistic Basic.rack[0].node[6].app 	"End-to-End Delay"
field count 100256
field mean 5.3513022016177e-006
field stddev 5.0698699531739e-006
field sum 0.53650015352538
field sqrsum 5.4478870001804e-006
field min 4e-007
field max 3.9702804e-005
statistic Basic.rack[0].node[6].app 	hops
field count 100256
field mean 2.9981447494414
field stddev 0.70599260905879
field sum 300582
field sqrsum 951158
field min 2
field max 4
statistic Basic.rack[0].node[7].app 	throughput
field count 100227
field mean 50114
field stddev 28933.187052242
field sum 5022775878
field sqrsum 3.3561351287483e+014
field min 1
field max 100227
statistic Basic.rack[0].node[7].app 	"End-to-End Delay"
field count 100227
field mean 5.3111348751172e-006
field stddev 5.0588845075573e-006
field sum 0.53231911512837
field sqrsum 5.3922337257463e-006
field min 4e-007
field max 4.1973435e-005
statistic Basic.rack[0].node[7].app 	hops
field count 100227
field mean 3.0033124806689
field stddev 0.70914911379197
field sum 301013
field sqrsum 954439
field min 2
field max 4
statistic Basic.rack[0].node[8].app 	throughput
field count 100007
field mean 50004
field stddev 28869.67852263
field sum 5000750028
field sqrsum 3.3340833895014e+014
field min 1
field max 100007
statistic Basic.rack[0].node[8].app 	"End-to-End Delay"
field count 100007
field mean 5.3095733595685e-006
field stddev 5.0506035773368e-006
field sum 0.53099450297037
field sqrsum 5.3703669681685e-006
field min 4e-007
field max 4.3721718e-005
statistic Basic.rack[0].node[8].app 	hops
field count 100007
field mean 3.0025898187127
field stddev 0.70869821304989
field sum 300280
field sqrsum 951846
field min 2
field max 4
statistic Basic.rack[0].node[9].app 	throughput
field count 99327
field mean 49664
field stddev 28673.379431103
field sum 4932976128
field sqrsum 3.2665345756928e+014
field min 1
field max 99327
statistic Basic.rack[0].node[9].app 	"End-to-End Delay"
field count 99327
field mean 5.322171665452e-006
field stddev 5.0499255651553e-006
field sum 0.52863534501435
field sqrsum 5.3464746976568e-006
field min 4e-007
field max 4.2022449e-005
statistic Basic.rack[0].node[9].app 	hops
field count 99327
field mean 2.9992751215682
field stddev 0.70739823062945
field sum 297909
field sqrsum 943215
field min 2
field max 4
statistic Basic.rack[0].eps.queue[0] 	dropsum
field count 0
field mean nan
field stddev nan
field sum 0
field sqrsum 0
field min nan
field max nan
statistic Basic.rack[0].eps.queue[1] 	dropsum
field count 0
field mean nan
field stddev nan
field sum 0
field sqrsum 0
field min nan
field max nan
statistic Basic.rack[0].eps.queue[2] 	dropsum
field count 0
field mean nan
field stddev nan
field sum 0
field sqrsum 0
field min nan
field max nan
statistic Basic.rack[0].eps.queue[3] 	dropsum
field count 0
field mean nan
field stddev nan
field sum 0
field sqrsum 0
field min nan
field max nan
statistic Basic.rack[1].node[0].app 	throughput
field count 99444
field mean 49722.5
field stddev 28707.154421851
field sum 4944604290
field sqrsum 3.2780913421127e+014
field min 1
field max 99444
statistic Basic.rack[1].node[0].app 	"End-to-End Delay"
field count 99444
field mean 5.3707930697314e-006
field stddev 5.0617873675079e-006
field sum 0.53409314602637
field sqrsum 5.4164016205717e-006
field min 4e-007
field max 3.8295952e-005
statistic Basic.rack[1].node[0].app 	hops
field count 99444
field mean 3.0021821326576
field stddev 0.70433548653488
field sum 298549
field sqrsum 945631
field min 2
field max 4
statistic Basic.rack[1].node[1].app 	throughput
field count 99211
field mean 49606
field stddev 28639.89311549
field sum 4921460866
field sqrsum 3.2551034313811e+014
field min 1
field max 99211
statistic Basic.rack[1].node[1].app 	"End-to-End Delay"
field count 99211
field mean 5.3075753243022e-006
field stddev 5.053484114971e-006
field sum 0.52656985549935
field sqrsum 5.3284045572529e-006
field min 4e-007
field max 5.8281922e-005
statistic Basic.rack[1].node[1].app 	hops
field count 99211
field mean 3.000534214956
field stddev 0.70890040283319
field sum 297686
field sqrsum 943074
field min 2
field max 4
statistic Basic.rack[1].node[2].app 	throughput
field count 99467
field mean 49734
field stddev 28713.793949947
field sum 4946891778
field sqrsum 3.2803663861881e+014
field min 1
field max 99467
statistic Basic.rack[1].node[2].app 	"End-to-End Delay"
field count 99467
field mean 5.3209293906457e-006
field stddev 5.0509144152793e-006
field sum 0.52925688369935
field sqrsum 5.3536888834712e-006
field min 4e-007
field max 6.1721315e-005
statistic Basic.rack[1].node[2].app 	hops
field count 99467
field mean 2.9997184996029
field stddev 0.70768232235825
field sum 298373
field sqrsum 944849
field min 2
field max 4
statistic Basic.rack[1].node[3].app 	throughput
field count 100027
field mean 50014
field stddev 28875.452025322
field sum 5002750378
field sqrsum 3.3360840895693e+014
field min 1
field max 100027
statistic Basic.rack[1].node[3].app 	"End-to-End Delay"
field count 100027
field mean 5.311896984118e-006
field stddev 5.0529787234097e-006
field sum 0.53133311963037
field sqrsum 5.3763100410932e-006
field min 4e-007
field max 4.2525998e-005
statistic Basic.rack[1].node[3].app 	hops
field count 100027
field mean 2.9978505803433
field stddev 0.70844540091482
field sum 299866
field sqrsum 949156
field min 2
field max 4
statistic Basic.rack[1].node[4].app 	throughput
field count 100249
field mean 50125
field stddev 28939.537905203
field sum 5024981125
field sqrsum 3.3583456352712e+014
field min 1
field max 100249
statistic Basic.rack[1].node[4].app 	"End-to-End Delay"
field count 100249
field mean 5.3345168468251e-006
field stddev 5.0583480856176e-006
field sum 0.53477997937737
field sqrsum 5.4178268924287e-006
field min 4e-007
field max 4.315485e-005
statistic Basic.rack[1].node[4].app 	hops
field count 100249
field mean 2.9991221857575
field stddev 0.70664054666092
field sum 300659
field sqrsum 951771
field min 2
field max 4
statistic Basic.rack[1].node[5].app 	throughput
field count 100203
field mean 50102
field stddev 28926.258849011
field sum 5020370706
field sqrsum 3.3537247735911e+014
field min 1
field max 100203
statistic Basic.rack[1].node[5].app 	"End-to-End Delay"
field count 100203
field mean 5.326833836266e-006
field stddev 5.0578356130432e-006
field sum 0.53376473089537
field sqrsum 5.4066136416156e-006
field min 4e-007
field max 4.3247424e-005
statistic Basic.rack[1].node[5].app 	hops
field count 100203
field mean 3.0028741654441
field stddev 0.70734788719259
field sum 300897
field sqrsum 953691
field min 2
field max 4
statistic Basic.rack[1].node[6].app 	throughput
field count 99624
field mean 49812.5
field stddev 28759.115946079
field sum 4962520500
field sqrsum 3.295924157015e+014
field min 1
field max 99624
statistic Basic.rack[1].node[6].app 	"End-to-End Delay"
field count 99624
field mean 5.354826105661e-006
field stddev 5.0662657967214e-006
field sum 0.53346919595037
field sqrsum 5.4136632118245e-006
field min 4e-007
field max 4.2733016e-005
statistic Basic.rack[1].node[6].app 	hops
field count 99624
field mean 3.0006323777403
field stddev 0.7055396911488
field sum 298935
field sqrsum 946585
field min 2
field max 4
statistic Basic.rack[1].node[7].app 	throughput
field count 99944
field mean 49972.5
field stddev 28851.49198915
field sum 4994451540
field sqrsum 3.3277864129302e+014
field min 1
field max 99944
statistic Basic.rack[1].node[7].app 	"End-to-End Delay"
field count 99944
field mean 5.3043141145477e-006
field stddev 5.0734232229441e-006
field sum 0.53013436986436
field sqrsum 5.3844943820669e-006
field min 4e-007
field max 5.500308e-005
statistic Basic.rack[1].node[7].app 	hops
field count 99944
field mean 2.9984991595293
field stddev 0.70989083483857
field sum 299682
field sqrsum 948962
field min 2
field max 4
statistic Basic.rack[1].node[8].app 	throughput
field count 100134
field mean 50067.5
field stddev 28906.340264724
field sum 5013459045
field sqrsum 3.3468014316104e+014
field min 1
field max 100134
statistic Basic.rack[1].node[8].app 	"End-to-End Delay"
field count 100134
field mean 5.3435909524076e-006
field stddev 5.0523824042899e-006
field sum 0.53507513642838
field sqrsum 5.4152744873333e-006
field min 4e-007
field max 4.0320624e-005
statistic Basic.rack[1].node[8].app 	hops
field count 100134
field mean 2.9980126630315
field stddev 0.70610405033724
field sum 300203
field sqrsum 949937
field min 2
field max 4
statistic Basic.rack[1].node[9].app 	throughput
field count 99627
field mean 49814
field stddev 28759.981971483
field sum 4962819378
field sqrsum 3.2962219172113e+014
field min 1
field max 99627
statistic Basic.rack[1].node[9].app 	"End-to-End Delay"
field count 99627
field mean 5.3318876611698e-006
field stddev 5.0727720325448e-006
field sum 0.53119997201937
field sqrsum 5.3959760378215e-006
field min 4e-007
field max 4.1024482e-005
statistic Basic.rack[1].node[9].app 	hops
field count 99627
field mean 3.003984863541
field stddev 0.70797512365401
field sum 299278
field sqrsum 948962
field min 2
field max 4
statistic Basic.rack[1].eps.queue[0] 	dropsum
field count 0
field mean nan
field stddev nan
field sum 0
field sqrsum 0
field min nan
field max nan
statistic Basic.rack[1].eps.queue[1] 	dropsum
field count 0
field mean nan
field stddev nan
field sum 0
field sqrsum 0
field min nan
field max nan
statistic Basic.rack[1].eps.queue[2] 	dropsum
field count 0
field mean nan
field stddev nan
field sum 0
field sqrsum 0
field min nan
field max nan
statistic Basic.rack[1].eps.queue[3] 	dropsum
field count 0
field mean nan
field stddev nan
field sum 0
field sqrsum 0
field min nan
field max nan
statistic Basic.rack[2].node[0].app 	throughput
field count 99845
field mean 49923
field stddev 28822.913150825
field sum 4984561935
field sqrsum 3.317907191207e+014
field min 1
field max 99845
statistic Basic.rack[2].node[0].app 	"End-to-End Delay"
field count 99845
field mean 3.0402006749785e-006
field stddev 4.2530895678037e-006
field sum 0.30354883639323
field sqrsum 2.7289046162117e-006
field min 4e-007
field max 3.9684708e-005
statistic Basic.rack[2].node[0].app 	hops
field count 99845
field mean 3.2488056487556
field stddev 0.82903793327691
field sum 324377
field sqrsum 1122461
field min 2
field max 4
statistic Basic.rack[2].node[1].app 	throughput
field count 99671
field mean 49836
field stddev 28772.683677405
field sum 4967203956
field sqrsum 3.3005911273364e+014
field min 1
field max 99671
statistic Basic.rack[2].node[1].app 	"End-to-End Delay"
field count 99671
field mean 3.0180548059137e-006
field stddev 4.2482501731623e-006
field sum 0.30081254056023
field sqrsum 2.7066759693481e-006
field min 4e-007
field max 4.2060475e-005
statistic Basic.rack[2].node[1].app 	hops
field count 99671
field mean 3.2516278556451
field stddev 0.82974919711536
field sum 324093
field sqrsum 1122451
field min 2
field max 4
statistic Basic.rack[2].node[2].app 	throughput
field count 99922
field mean 49961.5
field stddev 28845.141136189
field sum 4992253003
field sqrsum 3.3255893379484e+014
field min 1
field max 99922
statistic Basic.rack[2].node[2].app 	"End-to-End Delay"
field count 99922
field mean 3.0444148409583e-006
field stddev 4.2632493804632e-006
field sum 0.30420401973823
field sqrsum 2.7422169120451e-006
field min 4e-007
field max 4.3127621e-005
statistic Basic.rack[2].node[2].app 	hops
field count 99922
field mean 3.2516362762955
field stddev 0.82806417021965
field sum 324910
field sqrsum 1125004
field min 2
field max 4
statistic Basic.rack[2].node[3].app 	throughput
field count 100132
field mean 50066.5
field stddev 28905.762914455
field sum 5013258778
field sqrsum 3.3466008972539e+014
field min 1
field max 100132
statistic Basic.rack[2].node[3].app 	"End-to-End Delay"
field count 100132
field mean 3.0384271142716e-006
field stddev 4.2504268196871e-006
field sum 0.30424378380624
field sqrsum 2.7334020398045e-006
field min 4e-007
field max 4.5118875e-005
statistic Basic.rack[2].node[3].app 	hops
field count 100132
field mean 3.2493009227819
field stddev 0.82878055087699
field sum 325359
field sqrsum 1125967
field min 2
field max 4
statistic Basic.rack[2].node[4].app 	throughput
field count 100702
field mean 50351.5
field stddev 29070.307741176
field sum 5070496753
field sqrsum 3.4040779951266e+014
field min 1
field max 100702
statistic Basic.rack[2].node[4].app 	"End-to-End Delay"
field count 100702
field mean 3.0369296258092e-006
field stddev 4.2624431091353e-006
field sum 0.30582488717824
field sqrsum 2.7583468493452e-006
field min 4e-007
field max 4.0006025e-005
statistic Basic.rack[2].node[4].app 	hops
field count 100702
field mean 3.2472642052789
field stddev 0.83009691964526
field sum 327006
field sqrsum 1131264
field min 2
field max 4
statistic Basic.rack[2].node[5].app 	throughput
field count 99773
field mean 49887
field stddev 28802.128541134
field sum 4977375651
field sqrsum 3.310734596767e+014
field min 1
field max 99773
statistic Basic.rack[2].node[5].app 	"End-to-End Delay"
field count 99773
field mean 3.0185627110364e-006
field stddev 4.2447976037381e-006
field sum 0.30117105736823
field sqrsum 2.7068262191583e-006
field min 4e-007
field max 3.9234107e-005
statistic Basic.rack[2].node[5].app 	hops
field count 99773
field mean 3.2512503382679
field stddev 0.82999230603846
field sum 324387
field sqrsum 1123395
field min 2
field max 4
statistic Basic.rack[2].node[6].app 	throughput
field count 100061
field mean 50031
field stddev 28885.266979898
field sum 5006151891
field sqrsum 3.3394871162753e+014
field min 1
field max 100061
statistic Basic.rack[2].node[6].app 	"End-to-End Delay"
field count 100061
field mean 3.008713784084e-006
field stddev 4.2421886431556e-006
field sum 0.30105490994923
field sqrsum 2.7064842756113e-006
field min 4e-007
field max 3.7995212e-005
statistic Basic.rack[2].node[6].app 	hops
field count 100061
field mean 3.2462997571481
field stddev 0.83204209534241
field sum 324828
field sqrsum 1123760
field min 2
field max 4
statistic Basic.rack[2].node[7].app 	throughput
field count 100553
field mean 50277
field stddev 29027.295146121
field sum 5055503181
field sqrsum 3.3889902607379e+014
field min 1
field max 100553
statistic Basic.rack[2].node[7].app 	"End-to-End Delay"
field count 100553
field mean 3.023515161181e-006
field stddev 4.2500554722561e-006
field sum 0.30402352000223
field sqrsum 2.7354876340853e-006
field min 4e-007
field max 4.5079965e-005
statistic Basic.rack[2].node[7].app 	hops
field count 100553
field mean 3.2520064045827
field stddev 0.82936401807388
field sum 326999
field sqrsum 1132567
field min 2
field max 4
statistic Basic.rack[2].node[8].app 	throughput
field count 100245
field mean 50123
field stddev 28938.383204664
field sum 5024580135
field sqrsum 3.357943652821e+014
field min 1
field max 100245
statistic Basic.rack[2].node[8].app 	"End-to-End Delay"
field count 100245
field mean 3.045299188341e-006
field stddev 4.2601407088198e-006
field sum 0.30527601713524
field sqrsum 2.7489650000179e-006
field min 4e-007
field max 4.8777655e-005
statistic Basic.rack[2].node[8].app 	hops
field count 100245
field mean 3.2538680233428
field stddev 0.82740118473535
field sum 326184
field sqrsum 1129986
field min 2
field max 4
statistic Basic.rack[2].node[9].app 	throughput
field count 100098
field mean 50049.5
field stddev 28895.947959878
field sum 5009854851
field sqrsum 3.3431930386855e+014
field min 1
field max 100098
statistic Basic.rack[2].node[9].app 	"End-to-End Delay"
field count 100098
field mean 3.0285607724453e-006
field stddev 4.2617751621109e-006
field sum 0.30315287620023
field sqrsum 2.7361514467231e-006
field min 4e-007
field max 3.5107164e-005
statistic Basic.rack[2].node[9].app 	hops
field count 100098
field mean 3.2505944174709
field stddev 0.82971869702863
field sum 325378
field sqrsum 1126582
field min 2
field max 4
statistic Basic.rack[2].eps.queue[0] 	dropsum
field count 0
field mean nan
field stddev nan
field sum 0
field sqrsum 0
field min nan
field max nan
statistic Basic.rack[2].eps.queue[1] 	dropsum
field count 0
field mean nan
field stddev nan
field sum 0
field sqrsum 0
field min nan
field max nan
statistic Basic.rack[2].eps.queue[2] 	dropsum
field count 0
field mean nan
field stddev nan
field sum 0
field sqrsum 0
field min nan
field max nan
statistic Basic.rack[2].eps.queue[3] 	dropsum
field count 0
field mean nan
field stddev nan
field sum 0
field sqrsum 0
field min nan
field max nan
statistic Basic.rack[3].node[0].app 	throughput
field count 100127
field mean 50064
field stddev 28904.319538782
field sum 5012758128
field sqrsum 3.3460995964088e+014
field min 1
field max 100127
statistic Basic.rack[3].node[0].app 	"End-to-End Delay"
field count 100127
field mean 3.043637048331e-006
field stddev 4.2730369689586e-006
field sum 0.30475024673823
field sqrsum 2.7557342497314e-006
field min 4e-007
field max 4.2987537e-005
statistic Basic.rack[3].node[0].app 	hops
field count 100127
field mean 3.2511710128137
field stddev 0.82879280349401
field sum 325530
field sqrsum 1127130
field min 2
field max 4
statistic Basic.rack[3].node[1].app 	throughput
field count 99906
field mean 49953.5
field stddev 28840.522334035
field sum 4990654371
field sqrsum 3.3239920727754e+014
field min 1
field max 99906
statistic Basic.rack[3].node[1].app 	"End-to-End Delay"
field count 99906
field mean 3.0449001399039e-006
field stddev 4.2502801712278e-006
field sum 0.30420379337724
field sqrsum 2.7310421626611e-006
field min 4e-007
field max 3.8063881e-005
statistic Basic.rack[3].node[1].app 	hops
field count 99906
field mean 3.2471222949573
field stddev 0.82923532622709
field sum 324407
field sqrsum 1122087
field min 2
field max 4
statistic Basic.rack[3].node[2].app 	throughput
field count 100544
field mean 50272.5
field stddev 29024.697069909
field sum 5054598240
field sqrsum 3.3880803516112e+014
field min 1
field max 100544
statistic Basic.rack[3].node[2].app 	"End-to-End Delay"
field count 100544
field mean 3.0538146292492e-006
field stddev 4.2745490881322e-006
field sum 0.30704273808324
field sqrsum 2.7747501671079e-006
field min 4e-007
field max 3.6475851e-005
statistic Basic.rack[3].node[2].app 	hops
field count 100544
field mean 3.2534910089115
field stddev 0.8273006174821
field sum 327119
field sqrsum 1133093
field min 2
field max 4
statistic Basic.rack[3].node[3].app 	throughput
field count 100486
field mean 50243.5
field stddev 29007.953912103
field sum 5048768341
field sqrsum 3.3822203993193e+014
field min 1
field max 100486
statistic Basic.rack[3].node[3].app 	"End-to-End Delay"
field count 100486
field mean 3.0510527058818e-006
field stddev 4.2533252431659e-006
field sum 0.30658808220324
field sqrsum 2.7532679863902e-006
field min 4e-007
field max 3.5122455e-005
statistic Basic.rack[3].node[3].app 	hops
field count 100486
field mean 3.2467806460601
field stddev 0.82880143164481
field sum 326256
field sqrsum 1128306
field min 2
field max 4
statistic Basic.rack[3].node[4].app 	throughput
field count 100377
field mean 50189
field stddev 28976.488322431
field sum 5037821253
field sqrsum 3.37122601882e+014
field min 1
field max 100377
statistic Basic.rack[3].node[4].app 	"End-to-End Delay"
field count 100377
field mean 3.0435988256996e-006
field stddev 4.2583072018335e-006
field sum 0.30550731932724
field sqrsum 2.7499778166304e-006
field min 4e-007
field max 4.410782e-005
statistic Basic.rack[3].node[4].app 	hops
field count 100377
field mean 3.2502366079879
field stddev 0.8286397215691
field sum 326249
field sqrsum 1129309
field min 2
field max 4
statistic Basic.rack[3].node[5].app 	throughput
field count 100700
field mean 50350.5
field stddev 29069.730390907
field sum 5070295350
field sqrsum 3.4038751792845e+014
field min 1
field max 100700
statistic Basic.rack[3].node[5].app 	"End-to-End Delay"
field count 100700
field mean 3.0303696456727e-006
field stddev 4.2552839137664e-006
field sum 0.30515822331924
field sqrsum 2.7481434371395e-006
field min 4e-007
field max 4.2352525e-005
statistic Basic.rack[3].node[5].app 	hops
field count 100700
field mean 3.2516981132075
field stddev 0.82922743887919
field sum 327446
field sqrsum 1133998
field min 2
field max 4
statistic Basic.rack[3].node[6].app 	throughput
field count 100047
field mean 50024
field stddev 28881.225528014
field sum 5004751128
field sqrsum 3.3380855898572e+014
field min 1
field max 100047
statistic Basic.rack[3].node[6].app 	"End-to-End Delay"
field count 100047
field mean 3.0634336314556e-006
field stddev 4.2734645552894e-006
field sum 0.30648734452624
field sqrsum 2.7659936443368e-006
field min 4e-007
field max 3.9948994e-005
statistic Basic.rack[3].node[6].app 	hops
field count 100047
field mean 3.2462542604976
field stddev 0.82841092224778
field sum 324778
field sqrsum 1122970
field min 2
field max 4
statistic Basic.rack[3].node[7].app 	throughput
field count 100078
field mean 50039.5
field stddev 28890.174457186
field sum 5007853081
field sqrsum 3.3411894971124e+014
field min 1
field max 100078
statistic Basic.rack[3].node[7].app 	"End-to-End Delay"
field count 100078
field mean 3.0338434695461e-006
field stddev 4.2526068399026e-006
field sum 0.30362098674523
field sqrsum 2.7309975605328e-006
field min 4e-007
field max 3.8023167e-005
statistic Basic.rack[3].node[7].app 	hops
field count 100078
field mean 3.2503547233158
field stddev 0.82908042180897
field sum 325289
field sqrsum 1126095
field min 2
field max 4
statistic Basic.rack[3].node[8].app 	throughput
field count 99834
field mean 49917.5
field stddev 28819.737724344
field sum 4983463695
field sqrsum 3.3168107083898e+014
field min 1
field max 99834
statistic Basic.rack[3].node[8].app 	"End-to-End Delay"
field count 99834
field mean 3.043298960036e-006
field stddev 4.2636733958467e-006
field sum 0.30382470837623
field sqrsum 2.7394846235717e-006
field min 4e-007
field max 4.1668411e-005
statistic Basic.rack[3].node[8].app 	hops
field count 99834
field mean 3.24914357834
field stddev 0.82910101310858
field sum 324375
field sqrsum 1122567
field min 2
field max 4
statistic Basic.rack[3].node[9].app 	throughput
field count 99606
field mean 49803.5
field stddev 28753.919793656
field sum 4960727421
field sqrsum 3.2941379723989e+014
field min 1
field max 99606
statistic Basic.rack[3].node[9].app 	"End-to-End Delay"
field count 99606
field mean 3.0408678199027e-006
field stddev 4.2583519794445e-006
field sum 0.30288868006923
field sqrsum 2.7272378414948e-006
field min 4e-007
field max 3.8204747e-005
statistic Basic.rack[3].node[9].app 	hops
field count 99606
field mean 3.2517519024958
field stddev 0.8284453292167
field sum 323894
field sqrsum 1121584
field min 2
field max 4
statistic Basic.rack[3].eps.queue[0] 	dropsum
field count 0
field mean nan
field stddev nan
field sum 0
field sqrsum 0
field min nan
field max nan
statistic Basic.rack[3].eps.queue[1] 	dropsum
field count 0
field mean nan
field stddev nan
field sum 0
field sqrsum 0
field min nan
field max nan
statistic Basic.rack[3].eps.queue[2] 	dropsum
field count 0
field mean nan
field stddev nan
field sum 0
field sqrsum 0
field min nan
field max nan
statistic Basic.rack[3].eps.queue[3] 	dropsum
field count 0
field mean nan
field stddev nan
field sum 0
field sqrsum 0
field min nan
field max nan
statistic Basic.rack[4].node[0].app 	throughput
field count 100123
field mean 50062
field stddev 28903.164838243
field sum 5012357626
field sqrsum 3.3456985917787e+014
field min 1
field max 100123
statistic Basic.rack[4].node[0].app 	"End-to-End Delay"
field count 100123
field mean 5.3297757094312e-006
field stddev 5.0714482147573e-006
field sum 0.53363313335538
field sqrsum 5.419241401015e-006
field min 4e-007
field max 4.8148234e-005
statistic Basic.rack[4].node[0].app 	hops
field count 100123
field mean 2.9978726166815
field stddev 0.70755543552886
field sum 300156
field sqrsum 949954
field min 2
field max 4
statistic Basic.rack[4].node[1].app 	throughput
field count 100193
field mean 50097
field stddev 28923.372097665
field sum 5019368721
field sqrsum 3.3527207996501e+014
field min 1
field max 100193
statistic Basic.rack[4].node[1].app 	"End-to-End Delay"
field count 100193
field mean 5.356872943992e-006
field stddev 5.086938929326e-006
field sum 0.53672117087739
field sqrsum 5.4678102597628e-006
field min 4e-007
field max 4.7175908e-005
statistic Basic.rack[4].node[1].app 	hops
field count 100193
field mean 3.0010180351921
field stddev 0.7065553469645
field sum 300681
field sqrsum 952367
field min 2
field max 4
statistic Basic.rack[4].node[2].app 	throughput
field count 99999
field mean 50000
field stddev 28867.369121553
field sum 4999950000
field sqrsum 3.3332833335e+014
field min 1
field max 99999
statistic Basic.rack[4].node[2].app 	"End-to-End Delay"
field count 99999
field mean 5.3498744750086e-006
field stddev 5.0721198773282e-006
field sum 0.53498209762638
field sqrsum 5.4346756208766e-006
field min 4e-007
field max 4.0040687e-005
statistic Basic.rack[4].node[2].app 	hops
field count 99999
field mean 3.0015800158002
field stddev 0.70622055940379
field sum 300155
field sqrsum 950813
field min 2
field max 4
statistic Basic.rack[4].node[3].app 	throughput
field count 100318
field mean 50159.5
field stddev 28959.45648949
field sum 5031900721
field sqrsum 3.3652848831976e+014
field min 1
field max 100318
statistic Basic.rack[4].node[3].app 	"End-to-End Delay"
field count 100318
field mean 5.3457836560974e-006
field stddev 5.0804185171415e-006
field sum 0.53627832481238
field sqrsum 5.4560751116148e-006
field min 4e-007
field max 3.9215767e-005
statistic Basic.rack[4].node[3].app 	hops
field count 100318
field mean 3.0006280029506
field stddev 0.70706773325292
field sum 301017
field sqrsum 953393
field min 2
field max 4
statistic Basic.rack[4].node[4].app 	throughput
field count 100162
field mean 50081.5
field stddev 28914.423168493
field sum 5016263203
field sqrsum 3.3496097538032e+014
field min 1
field max 100162
statistic Basic.rack[4].node[4].app 	"End-to-End Delay"
field count 100162
field mean 5.359528194948e-006
field stddev 5.06108852788e-006
field sum 0.53682106306238
field sqrsum 5.4426932851797e-006
field min 4e-007
field max 3.9697883e-005
statistic Basic.rack[4].node[4].app 	hops
field count 100162
field mean 2.9995706954733
field stddev 0.7050740649077
field sum 300443
field sqrsum 950993
field min 2
field max 4
statistic Basic.rack[4].node[5].app 	throughput
field count 100112
field mean 50056.5
field stddev 28899.989411763
field sum 5011256328
field sqrsum 3.344595994246e+014
field min 1
field max 100112
statistic Basic.rack[4].node[5].app 	"End-to-End Delay"
field count 100112
field mean 5.3484962028765e-006
field stddev 5.0612583895146e-006
field sum 0.53544865186238
field sqrsum 5.4283221432143e-006
field min 4e-007
field max 3.8530571e-005
statistic Basic.rack[4].node[5].app 	hops
field count 100112
field mean 2.9989411858718
field stddev 0.7061341256866
field sum 300230
field sqrsum 950290
field min 2
field max 4
statistic Basic.rack[4].node[6].app 	throughput
field count 99920
field mean 49960.5
field stddev 28844.56378592
field sum 4992053160
field sqrsum 3.3253896518252e+014
field min 1
field max 99920
statistic Basic.rack[4].node[6].app 	"End-to-End Delay"
field count 99920
field mean 5.3241941865029e-006
field stddev 5.077473027674e-006
field sum 0.53199348311537
field sqrsum 5.4084216054159e-006
field min 4e-007
field max 4.0634861e-005
statistic Basic.rack[4].node[6].app 	hops
field count 99920
field mean 2.9990992794235
field stddev 0.7081845980715
field sum 299670
field sqrsum 948852
field min 2
field max 4
statistic Basic.rack[4].node[7].app 	throughput
field count 100178
field mean 50089.5
field stddev 28919.041970646
field sum 5017865931
field sqrsum 3.3512152144579e+014
field min 1
field max 100178
statistic Basic.rack[4].node[7].app 	"End-to-End Delay"
field count 100178
field mean 5.3278707115472e-006
field stddev 5.0826373264366e-006
field sum 0.53373543214137
field sqrsum 5.4315660726177e-006
field min 4e-007
field max 4.1044585e-005
statistic Basic.rack[4].node[7].app 	hops
field count 100178
field mean 2.9963564854559
field stddev 0.70834215329814
field sum 300169
field sqrsum 949677
field min 2
field max 4
statistic Basic.rack[4].node[8].app 	throughput
field count 99971
field mean 49986
field stddev 28859.286217784
field sum 4997150406
field sqrsum 3.3304841454229e+014
field min 1
field max 99971
statistic Basic.rack[4].node[8].app 	"End-to-End Delay"
field count 99971
field mean 5.3255019986633e-006
field stddev 5.0571130406353e-006
field sum 0.53239576030837
field sqrsum 5.3919466844093e-006
field min 4e-007
field max 4.3492038e-005
statistic Basic.rack[4].node[8].app 	hops
field count 99971
field mean 2.9986496083864
field stddev 0.7076145790535
field sum 299778
field sqrsum 948986
field min 2
field max 4
statistic Basic.rack[4].node[9].app 	throughput
field count 100080
field mean 50040.5
field stddev 28890.751807456
field sum 5008053240
field sqrsum 3.3413898152388e+014
field min 1
field max 100080
statistic Basic.rack[4].node[9].app 	"End-to-End Delay"
field count 100080
field mean 5.353152532328e-006
field stddev 5.0698985506606e-006
field sum 0.53574350543538
field sqrsum 5.4403344400325e-006
field min 4e-007
field max 4.4623844e-005
statistic Basic.rack[4].node[9].app 	hops
field count 100080
field mean 2.9998900879297
field stddev 0.7057736718621
field sum 300229
field sqrsum 950505
field min 2
field max 4
statistic Basic.rack[4].eps.queue[0] 	dropsum
field count 0
field mean nan
field stddev nan
field sum 0
field sqrsum 0
field min nan
field max nan
statistic Basic.rack[4].eps.queue[1] 	dropsum
field count 0
field mean nan
field stddev nan
field sum 0
field sqrsum 0
field min nan
field max nan
statistic Basic.rack[4].eps.queue[2] 	dropsum
field count 0
field mean nan
field stddev nan
field sum 0
field sqrsum 0
field min nan
field max nan
statistic Basic.rack[4].eps.queue[3] 	dropsum
field count 0
field mean nan
field stddev nan
field sum 0
field sqrsum 0
field min nan
field max nan
statistic Basic.rack[5].node[0].app 	throughput
field count 100316
field mean 50158.5
field stddev 28958.879139221
field sum 5031700086
field sqrsum 3.3650836111815e+014
field min 1
field max 100316
statistic Basic.rack[5].node[0].app 	"End-to-End Delay"
field count 100316
field mean 5.3297277284121e-006
field stddev 5.0865846141112e-006
field sum 0.53465696680339
field sqrsum 5.4450604678684e-006
field min 4e-007
field max 4.0778041e-005
statistic Basic.rack[5].node[0].app 	hops
field count 100316
field mean 3.0003289604849
field stddev 0.70846934702474
field sum 300981
field sqrsum 953393
field min 2
field max 4
statistic Basic.rack[5].node[1].app 	throughput
field count 100742
field mean 50371.5
field stddev 29081.85474656
field sum 5074525653
field sqrsum 3.4081360039824e+014
field min 1
field max 100742
statistic Basic.rack[5].node[1].app 	"End-to-End Delay"
field count 100742
field mean 5.3330885145062e-006
field stddev 5.0544059056531e-006
field sum 0.53726600312839
field sqrsum 5.4389193975515e-006
field min 4e-007
field max 3.8931422e-005
statistic Basic.rack[5].node[1].app 	hops
field count 100742
field mean 3.0010521927299
field stddev 0.70713056463224
field sum 302332
field sqrsum 957688
field min 2
field max 4
statistic Basic.rack[5].node[2].app 	throughput
field count 100454
field mean 50227.5
field stddev 28998.716307795
field sum 5045553285
field sqrsum 3.3789902164536e+014
field min 1
field max 100454
statistic Basic.rack[5].node[2].app 	"End-to-End Delay"
field count 100454
field mean 5.3353293838412e-006
field stddev 5.071795750698e-006
field sum 0.53595517792438
field sqrsum 5.4434611926796e-006
field min 4e-007
field max 4.0439416e-005
statistic Basic.rack[5].node[2].app 	hops
field count 100454
field mean 2.9964461345491
field stddev 0.70739695599195
field sum 301005
field sqrsum 952213
field min 2
field max 4
statistic Basic.rack[5].node[3].app 	throughput
field count 99859
field mean 49930
field stddev 28826.954602709
field sum 4985959870
field sqrsum 3.3193030642551e+014
field min 1
field max 99859
statistic Basic.rack[5].node[3].app 	"End-to-End Delay"
field count 99859
field mean 5.3262879426428e-006
field stddev 5.0619939678566e-006
field sum 0.53187778766436
field sqrsum 5.3916739632817e-006
field min 4e-007
field max 4.3691104e-005
statistic Basic.rack[5].node[3].app 	hops
field count 99859
field mean 2.9977067665408
field stddev 0.70776837858564
field sum 299348
field sqrsum 947380
field min 2
field max 4
statistic Basic.rack[5].node[4].app 	throughput
field count 100251
field mean 50126
field stddev 28940.115255472
field sum 5025181626
field sqrsum 3.3585466385263e+014
field min 1
field max 100251
statistic Basic.rack[5].node[4].app 	"End-to-End Delay"
field count 100251
field mean 5.359239751348e-006
field stddev 5.0811104894429e-006
field sum 0.53726914431239
field sqrsum 5.4675769569158e-006
field min 4e-007
field max 4.2070219e-005
statistic Basic.rack[5].node[4].app 	hops
field count 100251
field mean 3.0015959940549
field stddev 0.70571408197355
field sum 300913
field sqrsum 953147
field min 2
field max 4
statistic Basic.rack[5].node[5].app 	throughput
field count 99854
field mean 49927.5
field stddev 28825.511227036
field sum 4985460585
field sqrsum 3.3188044932326e+014
field min 1
field max 99854
statistic Basic.rack[5].node[5].app 	"End-to-End Delay"
field count 99854
field mean 5.3353470523802e-006
field stddev 5.0744096950489e-006
field sum 0.53275574456837
field sqrsum 5.4136149705804e-006
field min 4e-007
field max 4.3785971e-005
statistic Basic.rack[5].node[5].app 	hops
field count 99854
field mean 3.0000500731067
field stddev 0.70749261467671
field sum 299567
field sqrsum 948697
field min 2
field max 4
statistic Basic.rack[5].node[6].app 	throughput
field count 100045
field mean 50023
field stddev 28880.648177745
field sum 5004551035
field sqrsum 3.337885403814e+014
field min 1
field max 100045
statistic Basic.rack[5].node[6].app 	"End-to-End Delay"
field count 100045
field mean 5.3501732059711e-006
field stddev 5.0765731080315e-006
field sum 0.53525807839138
field sqrsum 5.4420168315668e-006
field min 4e-007
field max 4.8239158e-005
statistic Basic.rack[5].node[6].app 	hops
field count 100045
field mean 3.0006796941376
field stddev 0.70644175374149
field sum 300203
field sqrsum 950741
field min 2
field max 4
statistic Basic.rack[5].node[7].app 	throughput
field count 100010
field mean 50005.5
field stddev 28870.544548034
field sum 5001050055
field sqrsum 3.3343834435038e+014
field min 1
field max 100010
statistic Basic.rack[5].node[7].app 	"End-to-End Delay"
field count 100010
field mean 5.3330810157922e-006
field stddev 5.0708213876331e-006
field sum 0.53336143238938
field sqrsum 5.4160141032252e-006
field min 4e-007
field max 3.8543259e-005
statistic Basic.rack[5].node[7].app 	hops
field count 100010
field mean 2.9953504649535
field stddev 0.70726470261117
field sum 299565
field sqrsum 947329
field min 2
field max 4
statistic Basic.rack[5].node[8].app 	throughput
field count 100019
field mean 50010
field stddev 28873.142624245
field sum 5001950190
field sqrsum 3.3352837135247e+014
field min 1
field max 100019
statistic Basic.rack[5].node[8].app 	"End-to-End Delay"
field count 100019
field mean 5.3282377122084e-006
field stddev 5.0522064551753e-006
field sum 0.53292500773737
field sqrsum 5.3924895767979e-006
field min 4e-007
field max 4.3057514e-005
statistic Basic.rack[5].node[8].app 	hops
field count 100019
field mean 3.0000299943011
field stddev 0.70738951583501
field sum 300060
field sqrsum 950238
field min 2
field max 4
statistic Basic.rack[5].node[9].app 	throughput
field count 99690
field mean 49845.5
field stddev 28778.168504962
field sum 4969097895
field sqrsum 3.3024790246766e+014
field min 1
field max 99690
statistic Basic.rack[5].node[9].app 	"End-to-End Delay"
field count 99690
field mean 5.3532867789183e-006
field stddev 5.0740599975648e-006
field sum 0.53366915899037
field sqrsum 5.4234855066373e-006
field min 4e-007
field max 3.796885e-005
statistic Basic.rack[5].node[9].app 	hops
field count 99690
field mean 3.0000401243856
field stddev 0.70636515931998
field sum 299074
field sqrsum 946974
field min 2
field max 4
statistic Basic.rack[5].eps.queue[0] 	dropsum
field count 0
field mean nan
field stddev nan
field sum 0
field sqrsum 0
field min nan
field max nan
statistic Basic.rack[5].eps.queue[1] 	dropsum
field count 0
field mean nan
field stddev nan
field sum 0
field sqrsum 0
field min nan
field max nan
statistic Basic.rack[5].eps.queue[2] 	dropsum
field count 0
field mean nan
field stddev nan
field sum 0
field sqrsum 0
field min nan
field max nan
statistic Basic.rack[5].eps.queue[3] 	dropsum
field count 0
field mean nan
field stddev nan
field sum 0
field sqrsum 0
field min nan
field max nan
statistic Basic.rack[6].node[0].app 	throughput
field count 100420
field mean 50210.5
field stddev 28988.901353219
field sum 5042138410
field sqrsum 3.3755604013427e+014
field min 1
field max 100420
statistic Basic.rack[6].node[0].app 	"End-to-End Delay"
field count 100420
field mean 3.0297526118626e-006
field stddev 4.2428712488244e-006
field sum 0.30424775728324
field sqrsum 2.7295339004382e-006
field min 4e-007
field max 4.0083115e-005
statistic Basic.rack[6].node[0].app 	hops
field count 100420
field mean 3.2512447719578
field stddev 0.82895819836379
field sum 326490
field sqrsum 1130504
field min 2
field max 4
statistic Basic.rack[6].node[1].app 	throughput
field count 100331
field mean 50166
field stddev 28963.20926624
field sum 5033204946
field sqrsum 3.3665933469307e+014
field min 1
field max 100331
statistic Basic.rack[6].node[1].app 	"End-to-End Delay"
field count 100331
field mean 3.0326984932298e-006
field stddev 4.2512451437673e-006
field sum 0.30427367252424
field sqrsum 2.7360429535741e-006
field min 4e-007
field max 4.0434993e-005
statistic Basic.rack[6].node[1].app 	hops
field count 100331
field mean 3.2519161575186
field stddev 0.82894547120195
field sum 326268
field sqrsum 1129938
field min 2
field max 4
statistic Basic.rack[6].node[2].app 	throughput
field count 99853
field mean 49927
field stddev 28825.222551902
field sum 4985360731
field sqrsum 3.3187047850194e+014
field min 1
field max 99853
statistic Basic.rack[6].node[2].app 	"End-to-End Delay"
field count 99853
field mean 3.03797232491e-006
field stddev 4.2759844169747e-006
field sum 0.30335065055924
field sqrsum 2.7472691162388e-006
field min 4e-007
field max 3.6221239e-005
statistic Basic.rack[6].node[2].app 	hops
field count 99853
field mean 3.2479444783832
field stddev 0.83029766317382
field sum 324317
field sqrsum 1122201
field min 2
field max 4
statistic Basic.rack[6].node[3].app 	throughput
field count 99377
field mean 49689
field stddev 28687.813187833
field sum 4937943753
field sqrsum 3.271470035425e+014
field min 1
field max 99377
statistic Basic.rack[6].node[3].app 	"End-to-End Delay"
field count 99377
field mean 3.0316099438323e-006
field stddev 4.2598815805352e-006
field sum 0.30127230138822
field sqrsum 2.716675739874e-006
field min 4e-007
field max 3.6527491e-005
statistic Basic.rack[6].node[3].app 	hops
field count 99377
field mean 3.247109492136
field stddev 0.83025823290831
field sum 322688
field sqrsum 1116306
field min 2
field max 4
statistic Basic.rack[6].node[4].app 	throughput
field count 100236
field mean 50118.5
field stddev 28935.785128453
field sum 5023677966
field sqrsum 3.3570393095931e+014
field min 1
field max 100236
statistic Basic.rack[6].node[4].app 	"End-to-End Delay"
field count 100236
field mean 3.0425718086939e-006
field stddev 4.2714469308242e-006
field sum 0.30497522781624
field sqrsum 2.7567225546259e-006
field min 4e-007
field max 3.7035371e-005
statistic Basic.rack[6].node[4].app 	hops
field count 100236
field mean 3.2513567979568
field stddev 0.82876206798228
field sum 325903
field sqrsum 1128473
field min 2
field max 4
statistic Basic.rack[6].node[5].app 	throughput
field count 99927
field mean 49964
field stddev 28846.584511862
field sum 4992752628
field sqrsum 3.3260885882298e+014
field min 1
field max 99927
statistic Basic.rack[6].node[5].app 	"End-to-End Delay"
field count 99927
field mean 3.0485770301543e-006
field stddev 4.271679499793e-006
field sum 0.30463515689223
field sqrsum 2.7520780205888e-006
field min 4e-007
field max 4.2274205e-005
statistic Basic.rack[6].node[5].app 	hops
field count 99927
field mean 3.2476808069891
field stddev 0.82930569378316
field sum 324531
field sqrsum 1122697
field min 2
field max 4
statistic Basic.rack[6].node[6].app 	throughput
field count 100076
field mean 50038.5
field stddev 28889.597106917
field sum 5007652926
field sqrsum 3.3409891869923e+014
field min 1
field max 100076
statistic Basic.rack[6].node[6].app 	"End-to-End Delay"
field count 100076
field mean 3.0411578924841e-006
field stddev 4.2715589421398e-006
field sum 0.30434691724824
field sqrsum 2.7515570752448e-006
field min 4e-007
field max 3.7141887e-005
statistic Basic.rack[6].node[6].app 	hops
field count 100076
field mean 3.2498800911307
field stddev 0.8291603315821
field sum 325235
field sqrsum 1125777
field min 2
field max 4
statistic Basic.rack[6].node[7].app 	throughput
field count 99884
field mean 49942.5
field stddev 28834.171481074
field sum 4988456670
field sqrsum 3.3217966683641e+014
field min 1
field max 99884
statistic Basic.rack[6].node[7].app 	"End-to-End Delay"
field count 99884
field mean 3.0435825688623e-006
field stddev 4.2662238836936e-006
field sum 0.30400520130824
field sqrsum 2.7432020761766e-006
field min 4e-007
field max 4.059512e-005
statistic Basic.rack[6].node[7].app 	hops
field count 99884
field mean 3.2503103600176
field stddev 0.82871039215026
field sum 324654
field sqrsum 1123822
field min 2
field max 4
statistic Basic.rack[6].node[8].app 	throughput
field count 100345
field mean 50173
field stddev 28967.250718124
field sum 5034609685
field sqrsum 3.3680028409744e+014
field min 1
field max 100345
statistic Basic.rack[6].node[8].app 	"End-to-End Delay"
field count 100345
field mean 3.0396363070331e-006
field stddev 4.2506265919638e-006
field sum 0.30501230522924
field sqrsum 2.7401244517876e-006
field min 4e-007
field max 4.0807031e-005
statistic Basic.rack[6].node[8].app 	hops
field count 100345
field mean 3.2498878867906
field stddev 0.82867866855158
field sum 326110
field sqrsum 1128728
field min 2
field max 4
statistic Basic.rack[6].node[9].app 	throughput
field count 100154
field mean 50077.5
field stddev 28912.113767416
field sum 5015461935
field sqrsum 3.348807215793e+014
field min 1
field max 100154
statistic Basic.rack[6].node[9].app 	"End-to-End Delay"
field count 100154
field mean 3.0185319816306e-006
field stddev 4.2385934592417e-006
field sum 0.30231805208823
field sqrsum 2.7118729083257e-006
field min 4e-007
field max 4.0889123e-005
statistic Basic.rack[6].node[9].app 	hops
field count 100154
field mean 3.2498352537093
field stddev 0.83009154513085
field sum 325484
field sqrsum 1126780
field min 2
field max 4
statistic Basic.rack[6].eps.queue[0] 	dropsum
field count 0
field mean nan
field stddev nan
field sum 0
field sqrsum 0
field min nan
field max nan
statistic Basic.rack[6].eps.queue[1] 	dropsum
field count 0
field mean nan
field stddev nan
field sum 0
field sqrsum 0
field min nan
field max nan
statistic Basic.rack[6].eps.queue[2] 	dropsum
field count 0
field mean nan
field stddev nan
field sum 0
field sqrsum 0
field min nan
field max nan
statistic Basic.rack[6].eps.queue[3] 	dropsum
field count 0
field mean nan
field stddev nan
field sum 0
field sqrsum 0
field min nan
field max nan
statistic Basic.rack[7].node[0].app 	throughput
field count 100072
field mean 50036.5
field stddev 28888.442406379
field sum 5007252628
field sqrsum 3.3405885907702e+014
field min 1
field max 100072
statistic Basic.rack[7].node[0].app 	"End-to-End Delay"
field count 100072
field mean 3.0314600833023e-006
field stddev 4.2632989316775e-006
field sum 0.30336427345623
field sqrsum 2.7384989397293e-006
field min 4e-007
field max 4.1392657e-005
statistic Basic.rack[7].node[0].app 	hops
field count 100072
field mean 3.2477915900552
field stddev 0.83033463491162
field sum 325013
field sqrsum 1124569
field min 2
field max 4
statistic Basic.rack[7].node[1].app 	throughput
field count 100340
field mean 50170.5
field stddev 28965.807342451
field sum 5034107970
field sqrsum 3.3674994050919e+014
field min 1
field max 100340
statistic Basic.rack[7].node[1].app 	"End-to-End Delay"
field count 100340
field mean 3.046588313935e-006
field stddev 4.2573083503988e-006
field sum 0.30569467142024
field sqrsum 2.749937517237e-006
field min 4e-007
field max 3.2911665e-005
statistic Basic.rack[7].node[1].app 	hops
field count 100340
field mean 3.2497807454654
field stddev 0.82832451362942
field sum 326083
field sqrsum 1128543
field min 2
field max 4
statistic Basic.rack[7].node[2].app 	throughput
field count 99472
field mean 49736.5
field stddev 28715.23732562
field sum 4947389128
field sqrsum 3.2808611002332e+014
field min 1
field max 99472
statistic Basic.rack[7].node[2].app 	"End-to-End Delay"
field count 99472
field mean 3.0351939206132e-006
field stddev 4.2579276090499e-006
field sum 0.30191680967123
field sqrsum 2.7197800753958e-006
field min 4e-007
field max 3.55603e-005
statistic Basic.rack[7].node[2].app 	hops
field count 99472
field mean 3.2457073347274
field stddev 0.83052123992878
field sum 322857
field sqrsum 1116511
field min 2
field max 4
statistic Basic.rack[7].node[3].app 	throughput
field count 100052
field mean 50026.5
field stddev 28882.668903687
field sum 5005251378
field sqrsum 3.3385860899823e+014
field min 1
field max 100052
statistic Basic.rack[7].node[3].app 	"End-to-End Delay"
field count 100052
field mean 3.0564354339967e-006
field stddev 4.2768978615741e-006
field sum 0.30580247804224
field sqrsum 2.7647839461473e-006
field min 4e-007
field max 3.7785012e-005
statistic Basic.rack[7].node[3].app 	hops
field count 100052
field mean 3.2475312837325
field stddev 0.82894267463578
field sum 324922
field sqrsum 1123944
field min 2
field max 4
statistic Basic.rack[7].node[4].app 	throughput
field count 100198
field mean 50099.5
field stddev 28924.815473338
field sum 5019869701
field sqrsum 3.353222761571e+014
field min 1
field max 100198
statistic Basic.rack[7].node[4].app 	"End-to-End Delay"
field count 100198
field mean 3.0602455967708e-006
field stddev 4.2825080926915e-006
field sum 0.30663048830524
field sqrsum 2.7759651135547e-006
field min 4e-007
field max 3.6693509e-005
statistic Basic.rack[7].node[4].app 	hops
field count 100198
field mean 3.2527894768359
field stddev 0.82719585048004
field sum 325923
field sqrsum 1128719
field min 2
field max 4
statistic Basic.rack[7].node[5].app 	throughput
field count 100381
field mean 50191
field stddev 28977.64302297
field sum 5038222771
field sqrsum 3.3716290605809e+014
field min 1
field max 100381
statistic Basic.rack[7].node[5].app 	"End-to-End Delay"
field count 100381
field mean 3.0415195820946e-006
field stddev 4.254529486324e-006
field sum 0.30531077717024
field sqrsum 2.7455892104249e-006
field min 4e-007
field max 3.4101782e-005
statistic Basic.rack[7].node[5].app 	hops
field count 100381
field mean 3.2508442832807
field stddev 0.8284379479612
field sum 326323
field sqrsum 1129717
field min 2
field max 4
statistic Basic.rack[7].node[6].app 	throughput
field count 99758
field mean 49879.5
field stddev 28797.798414115
field sum 4975879161
field sqrsum 3.3092416085508e+014
field min 1
field max 99758
statistic Basic.rack[7].node[6].app 	"End-to-End Delay"
field count 99758
field mean 3.0411458465409e-006
field stddev 4.2738694211953e-006
field sum 0.30337862735923
field sqrsum 2.7447760072271e-006
field min 4e-007
field max 3.6846264e-005
statistic Basic.rack[7].node[6].app 	hops
field count 99758
field mean 3.253393211572
field stddev 0.82819927256916
field sum 324552
field sqrsum 1124320
field min 2
field max 4
statistic Basic.rack[7].node[7].app 	throughput
field count 100394
field mean 50197.5
field stddev 28981.39579972
field sum 5039527815
field sqrsum 3.3729391681534e+014
field min 1
field max 100394
statistic Basic.rack[7].node[7].app 	"End-to-End Delay"
field count 100394
field mean 3.0367405553942e-006
field stddev 4.2578796656577e-006
field sum 0.30487053131824
field sqrsum 2.745891540245e-006
field min 4e-007
field max 3.7717747e-005
statistic Basic.rack[7].node[7].app 	hops
field count 100394
field mean 3.2526645018627
field stddev 0.82848753971073
field sum 326548
field sqrsum 1131060
field min 2
field max 4
statistic Basic.rack[7].node[8].app 	throughput
field count 100421
field mean 50211
field stddev 28989.190028354
field sum 5042238831
field sqrsum 3.3756612451151e+014
field min 1
field max 100421
statistic Basic.rack[7].node[8].app 	"End-to-End Delay"
field count 100421
field mean 3.0180988010001e-006
field stddev 4.2543740563786e-006
field sum 0.30308049969523
field sqrsum 2.7322986273123e-006
field min 4e-007
field max 3.2712341e-005
statistic Basic.rack[7].node[8].app 	hops
field count 100421
field mean 3.2490813674431
field stddev 0.83096759716718
field sum 326276
field sqrsum 1129438
field min 2
field max 4
statistic Basic.rack[7].node[9].app 	throughput
field count 100221
field mean 50111
field stddev 28931.455001434
field sum 5022174531
field sqrsum 3.3555324317241e+014
field min 1
field max 100221
statistic Basic.rack[7].node[9].app 	"End-to-End Delay"
field count 100221
field mean 3.0413002813805e-006
field stddev 4.2685865270075e-006
field sum 0.30480215550024
field sqrsum 2.7530865579497e-006
field min 4e-007
field max 4.1748068e-005
statistic Basic.rack[7].node[9].app 	hops
field count 100221
field mean 3.2485107911516
field stddev 0.82957331214264
field sum 325569
field sqrsum 1126585
field min 2
field max 4
statistic Basic.rack[7].eps.queue[0] 	dropsum
field count 0
field mean nan
field stddev nan
field sum 0
field sqrsum 0
field min nan
field max nan
statistic Basic.rack[7].eps.queue[1] 	dropsum
field count 0
field mean nan
field stddev nan
field sum 0
field sqrsum 0
field min nan
field max nan
statistic Basic.rack[7].eps.queue[2] 	dropsum
field count 0
field mean nan
field stddev nan
field sum 0
field sqrsum 0
field min nan
field max nan
statistic Basic.rack[7].eps.queue[3] 	dropsum
field count 0
field mean nan
field stddev nan
field sum 0
field sqrsum 0
field min nan
field max nan
statistic Basic.rack[8].node[0].app 	throughput
field count 99189
field mean 49595
field stddev 28633.542262528
field sum 4919278455
field sqrsum 3.2529384687482e+014
field min 1
field max 99189
statistic Basic.rack[8].node[0].app 	"End-to-End Delay"
field count 99189
field mean 5.3368729044788e-006
field stddev 5.0696280728383e-006
field sum 0.52935908652235
field sqrsum 5.3743657287087e-006
field min 4e-007
field max 5.219127e-005
statistic Basic.rack[8].node[0].app 	hops
field count 99189
field mean 2.9991430501366
field stddev 0.70727020898564
field sum 297482
field sqrsum 941808
field min 2
field max 4
statistic Basic.rack[8].node[1].app 	throughput
field count 100442
field mean 50221.5
field stddev 28995.25220618
field sum 5044347903
field sqrsum 3.3777794283138e+014
field min 1
field max 100442
statistic Basic.rack[8].node[1].app 	"End-to-End Delay"
field count 100442
field mean 5.3349375435413e-006
field stddev 5.0563495169442e-006
field sum 0.53585179674838
field sqrsum 5.4266778136601e-006
field min 4e-007
field max 4.4446551e-005
statistic Basic.rack[8].node[1].app 	hops
field count 100442
field mean 3.0031361382689
field stddev 0.70677942972246
field sum 301641
field sqrsum 956043
field min 2
field max 4
statistic Basic.rack[8].node[2].app 	throughput
field count 99727
field mean 49864
field stddev 28788.849484942
field sum 4972787128
field sqrsum 3.3061575220508e+014
field min 1
field max 99727
statistic Basic.rack[8].node[2].app 	"End-to-End Delay"
field count 99727
field mean 5.3363378243041e-006
field stddev 5.0656080488601e-006
field sum 0.53217696220437
field sqrsum 5.3988835976382e-006
field min 4e-007
field max 4.0720605e-005
statistic Basic.rack[8].node[2].app 	hops
field count 99727
field mean 3.000862354227
field stddev 0.70718424654812
field sum 299267
field sqrsum 947933
field min 2
field max 4
statistic Basic.rack[8].node[3].app 	throughput
field count 100030
field mean 50015.5
field stddev 28876.318050726
field sum 5003050465
field sqrsum 3.3363842635946e+014
field min 1
field max 100030
statistic Basic.rack[8].node[3].app 	"End-to-End Delay"
field count 100030
field mean 5.332293185888e-006
field stddev 5.081576537667e-006
field sum 0.53338928738437
field sqrsum 5.4271789235452e-006
field min 4e-007
field max 4.2669327e-005
statistic Basic.rack[8].node[3].app 	hops
field count 100030
field mean 2.9972608217535
field stddev 0.70781862264486
field sum 299816
field sqrsum 948742
field min 2
field max 4
statistic Basic.rack[8].node[4].app 	throughput
field count 100615
field mean 50308
field stddev 29045.193004466
field sum 5061739420
field sqrsum 3.3952629507534e+014
field min 1
field max 100615
statistic Basic.rack[8].node[4].app 	"End-to-End Delay"
field count 100615
field mean 5.3590628020811e-006
field stddev 5.0719529229637e-006
field sum 0.53920210383139
field sqrsum 5.4778835524847e-006
field min 4e-007
field max 4.288053e-005
statistic Basic.rack[8].node[4].app 	hops
field count 100615
field mean 2.9984296576057
field stddev 0.70550789275841
field sum 301687
field sqrsum 954667
field min 2
field max 4
statistic Basic.rack[8].node[5].app 	throughput
field count 100253
field mean 50127
field stddev 28940.692605741
field sum 5025382131
field sqrsum 3.3587476498014e+014
field min 1
field max 100253
statistic Basic.rack[8].node[5].app 	"End-to-End Delay"
field count 100253
field mean 5.3555405407757e-006
field stddev 5.0680097968334e-006
field sum 0.53690900583439
field sqrsum 5.4503828278054e-006
field min 4e-007
field max 4.486613e-005
statistic Basic.rack[8].node[5].app 	hops
field count 100253
field mean 3.0005286624839
field stddev 0.70571571644278
field sum 300812
field sqrsum 952524
field min 2
field max 4
statistic Basic.rack[8].node[6].app 	throughput
field count 99812
field mean 49906.5
field stddev 28813.386871383
field sum 4981267578
field sqrsum 3.3146184675275e+014
field min 1
field max 99812
statistic Basic.rack[8].node[6].app 	"End-to-End Delay"
field count 99812
field mean 5.3210862069127e-006
field stddev 5.0704571771258e-006
field sum 0.53110825648437
field sqrsum 5.3921673141619e-006
field min 4e-007
field max 4.4400106e-005
statistic Basic.rack[8].node[6].app 	hops
field count 99812
field mean 3.0024746523464
field stddev 0.70850025818814
field sum 299683
field sqrsum 949893
field min 2
field max 4
statistic Basic.rack[8].node[7].app 	throughput
field count 100184
field mean 50092.5
field stddev 28920.774021454
field sum 5018467020
field sqrsum 3.3518173944346e+014
field min 1
field max 100184
statistic Basic.rack[8].node[7].app 	"End-to-End Delay"
field count 100184
field mean 5.3573472002753e-006
field stddev 5.0897706952878e-006
field sum 0.53672047191238
field sqrsum 5.4707152457201e-006
field min 4e-007
field max 4.3882441e-005
statistic Basic.rack[8].node[7].app 	hops
field count 100184
field mean 2.9998502754931
field stddev 0.70625574596197
field sum 300537
field sqrsum 951537
field min 2
field max 4
statistic Basic.rack[8].node[8].app 	throughput
field count 99836
field mean 49918.5
field stddev 28820.315074614
field sum 4983663366
field sqrsum 3.3170100509311e+014
field min 1
field max 99836
statistic Basic.rack[8].node[8].app 	"End-to-End Delay"
field count 99836
field mean 5.34444547333e-006
field stddev 5.076389842653e-006
field sum 0.53356805827537
field sqrsum 5.4243467711396e-006
field min 4e-007
field max 4.5177589e-005
statistic Basic.rack[8].node[8].app 	hops
field count 99836
field mean 3.0002403942466
field stddev 0.70689776817837
field sum 299532
field sqrsum 948556
field min 2
field max 4
statistic Basic.rack[8].node[9].app 	throughput
field count 99580
field mean 49790.5
field stddev 28746.414240156
field sum 4958137990
field sqrsum 3.2915590674213e+014
field min 1
field max 99580
statistic Basic.rack[8].node[9].app 	"End-to-End Delay"
field count 99580
field mean 5.2845777370391e-006
field stddev 5.0522892228196e-006
field sum 0.52623825105435
field sqrsum 5.3227632962915e-006
field min 4e-007
field max 4.172762e-005
statistic Basic.rack[8].node[9].app 	hops
field count 99580
field mean 3.0029021891946
field stddev 0.71046933811228
field sum 299029
field sqrsum 948219
field min 2
field max 4
statistic Basic.rack[8].eps.queue[0] 	dropsum
field count 0
field mean nan
field stddev nan
field sum 0
field sqrsum 0
field min nan
field max nan
statistic Basic.rack[8].eps.queue[1] 	dropsum
field count 0
field mean nan
field stddev nan
field sum 0
field sqrsum 0
field min nan
field max nan
statistic Basic.rack[8].eps.queue[2] 	dropsum
field count 0
field mean nan
field stddev nan
field sum 0
field sqrsum 0
field min nan
field max nan
statistic Basic.rack[8].eps.queue[3] 	dropsum
field count 0
field mean nan
field stddev nan
field sum 0
field sqrsum 0
field min nan
field max nan
statistic Basic.rack[9].node[0].app 	throughput
field count 99792
field mean 49896.5
field stddev 28807.613368691
field sum 4979271528
field sqrsum 3.3126263597196e+014
field min 1
field max 99792
statistic Basic.rack[9].node[0].app 	"End-to-End Delay"
field count 99792
field mean 5.3328695764227e-006
field stddev 5.0656605774828e-006
field sum 0.53217772077037
field sqrsum 5.3987629533016e-006
field min 4e-007
field max 4.2720629e-005
statistic Basic.rack[9].node[0].app 	hops
field count 99792
field mean 2.9992384159051
field stddev 0.70739329103875
field sum 299300
field sqrsum 947608
field min 2
field max 4
statistic Basic.rack[9].node[1].app 	throughput
field count 99476
field mean 49738.5
field stddev 28716.392026158
field sum 4947787026
field sqrsum 3.2812569072793e+014
field min 1
field max 99476
statistic Basic.rack[9].node[1].app 	"End-to-End Delay"
field count 99476
field mean 5.3421119939218e-006
field stddev 5.0509125485126e-006
field sum 0.53141193270736
field sqrsum 5.3766401649757e-006
field min 4e-007
field max 3.5749193e-005
statistic Basic.rack[9].node[1].app 	hops
field count 99476
field mean 3.0029253287225
field stddev 0.70617246828019
field sum 298719
field sqrsum 946637
field min 2
field max 4
statistic Basic.rack[9].node[2].app 	throughput
field count 99676
field mean 49838.5
field stddev 28774.127053078
field sum 4967702326
field sqrsum 3.3010878726503e+014
field min 1
field max 99676
statistic Basic.rack[9].node[2].app 	"End-to-End Delay"
field count 99676
field mean 5.3448928475698e-006
field stddev 5.0697423822017e-006
field sum 0.53275753947437
field sqrsum 5.4094075008725e-006
field min 4e-007
field max 5.0618392e-005
statistic Basic.rack[9].node[2].app 	hops
field count 99676
field mean 3.000632047835
field stddev 0.70657778861694
field sum 299091
field sqrsum 947225
field min 2
field max 4
statistic Basic.rack[9].node[3].app 	throughput
field count 99429
field mean 49715
field stddev 28702.824294832
field sum 4943112735
field sqrsum 3.2766081845646e+014
field min 1
field max 99429
statistic Basic.rack[9].node[3].app 	"End-to-End Delay"
field count 99429
field mean 5.3210005924766e-006
field stddev 5.0637775614607e-006
field sum 0.52906176790935
field sqrsum 5.3646551653918e-006
field min 4e-007
field max 4.2922822e-005
statistic Basic.rack[9].node[3].app 	hops
field count 99429
field mean 2.9959770288346
field stddev 0.70811870454449
field sum 297887
field sqrsum 942319
field min 2
field max 4
statistic Basic.rack[9].node[4].app 	throughput
field count 99779
field mean 49890
field stddev 28803.860591941
field sum 4977974310
field sqrsum 3.3113319177643e+014
field min 1
field max 99779
statistic Basic.rack[9].node[4].app 	"End-to-End Delay"
field count 99779
field mean 5.3204571864056e-006
field stddev 5.0600253265961e-006
field sum 0.53086989760236
field sqrsum 5.3791721362243e-006
field min 4e-007
field max 3.6743905e-005
statistic Basic.rack[9].node[4].app 	hops
field count 99779
field mean 2.9985066998066
field stddev 0.7080258910897
field sum 299188
field sqrsum 947136
field min 2
field max 4
statistic Basic.rack[9].node[5].app 	throughput
field count 99729
field mean 49865
field stddev 28789.426835212
field sum 4972986585
field sqrsum 3.306356437525e+014
field min 1
field max 99729
statistic Basic.rack[9].node[5].app 	"End-to-End Delay"
field count 99729
field mean 5.3398408764588e-006
field stddev 5.0624375366174e-006
field sum 0.53253699076836
field sqrsum 5.3995192822697e-006
field min 4e-007
field max 4.5440487e-005
statistic Basic.rack[9].node[5].app 	hops
field count 99729
field mean 3.003710054247
field stddev 0.70694104091316
field sum 299557
field sqrsum 949623
field min 2
field max 4
statistic Basic.rack[9].node[6].app 	throughput
field count 99697
field mean 49849
field stddev 28780.189230904
field sum 4969795753
field sqrsum 3.3031747472314e+014
field min 1
field max 99697
statistic Basic.rack[9].node[6].app 	"End-to-End Delay"
field count 99697
field mean 5.3353523967057e-006
field stddev 5.0623348293491e-006
field sum 0.53191862789437
field sqrsum 5.3929060395196e-006
field min 4e-007
field max 4.122678e-005
statistic Basic.rack[9].node[6].app 	hops
field count 99697
field mean 3.0005516715648
field stddev 0.70709947331527
field sum 299146
field sqrsum 947450
field min 2
field max 4
statistic Basic.rack[9].node[7].app 	throughput
field count 100391
field mean 50196
field stddev 28980.529774316
field sum 5039226636
field sqrsum 3.37263680552e+014
field min 1
field max 100391
statistic Basic.rack[9].node[7].app 	"End-to-End Delay"
field count 100391
field mean 5.3424419012002e-006
field stddev 5.0610998454224e-006
field sum 0.53633308490339
field sqrsum 5.4367912556629e-006
field min 4e-007
field max 3.951801e-005
statistic Basic.rack[9].node[7].app 	hops
field count 100391
field mean 3.0008566504966
field stddev 0.70660598949165
field sum 301259
field sqrsum 954159
field min 2
field max 4
statistic Basic.rack[9].node[8].app 	throughput
field count 99985
field mean 49993
field stddev 28863.327669669
field sum 4998550105
field sqrsum 3.3318835434898e+014
field min 1
field max 99985
statistic Basic.rack[9].node[8].app 	"End-to-End Delay"
field count 99985
field mean 5.350106148316e-006
field stddev 5.059815767297e-006
field sum 0.53493036323938
field sqrsum 5.421698157417e-006
field min 4e-007
field max 4.3206173e-005
statistic Basic.rack[9].node[8].app 	hops
field count 99985
field mean 2.9973295994399
field stddev 0.70574964629153
field sum 299688
field sqrsum 948064
field min 2
field max 4
statistic Basic.rack[9].node[9].app 	throughput
field count 100118
field mean 50059.5
field stddev 28901.72146257
field sum 5011857021
field sqrsum 3.3451973810466e+014
field min 1
field max 100118
statistic Basic.rack[9].node[9].app 	"End-to-End Delay"
field count 100118
field mean 5.3537501469404e-006
field stddev 5.0685757017477e-006
field sum 0.53600675721138
field sqrsum 5.4416980033946e-006
field min 4e-007
field max 4.0648538e-005
statistic Basic.rack[9].node[9].app 	hops
field count 100118
field mean 2.9970634651112
field stddev 0.70578222999499
field sum 300060
field sqrsum 949170
field min 2
field max 4
statistic Basic.rack[9].eps.queue[0] 	dropsum
field count 0
field mean nan
field stddev nan
field sum 0
field sqrsum 0
field min nan
field max nan
statistic Basic.rack[9].eps.queue[1] 	dropsum
field count 0
field mean nan
field stddev nan
field sum 0
field sqrsum 0
field min nan
field max nan
statistic Basic.rack[9].eps.queue[2] 	dropsum
field count 0
field mean nan
field stddev nan
field sum 0
field sqrsum 0
field min nan
field max nan
statistic Basic.rack[9].eps.queue[3] 	dropsum
field count 0
field mean nan
field stddev nan
field sum 0
field sqrsum 0
field min nan
field max nan
statistic Basic.rack[10].node[0].app 	throughput
field count 99892
field mean 49946.5
field stddev 28836.480882151
field sum 4989255778
field sqrsum 3.3225948853591e+014
field min 1
field max 99892
statistic Basic.rack[10].node[0].app 	"End-to-End Delay"
field count 99892
field mean 3.0234896961842e-006
field stddev 4.2575622013859e-006
field sum 0.30202243273123
field sqrsum 2.7238694781334e-006
field min 4e-007
field max 4.0680373e-005
statistic Basic.rack[10].node[0].app 	hops
field count 99892
field mean 3.2528330597045
field stddev 0.82941806760022
field sum 324932
field sqrsum 1125668
field min 2
field max 4
statistic Basic.rack[10].node[1].app 	throughput
field count 100344
field mean 50172.5
field stddev 28966.96204299
field sum 5034509340
field sqrsum 3.3679021497842e+014
field min 1
field max 100344
statistic Basic.rack[10].node[1].app 	"End-to-End Delay"
field count 100344
field mean 3.0438315549634e-006
field stddev 4.2668370791706e-006
field sum 0.30543023355124
field sqrsum 2.7565126719821e-006
field min 4e-007
field max 3.8378277e-005
statistic Basic.rack[10].node[1].app 	hops
field count 100344
field mean 3.2457745355975
field stddev 0.8301705762697
field sum 325694
field sqrsum 1126284
field min 2
field max 4
statistic Basic.rack[10].node[2].app 	throughput
field count 99632
field mean 49816.5
field stddev 28761.425347156
field sum 4963317528
field sqrsum 3.2967182240564e+014
field min 1
field max 99632
statistic Basic.rack[10].node[2].app 	"End-to-End Delay"
field count 99632
field mean 3.0332571310346e-006
field stddev 4.2518111458215e-006
field sum 0.30220947447924
field sqrsum 2.7177981011343e-006
field min 4e-007
field max 3.7274344e-005
statistic Basic.rack[10].node[2].app 	hops
field count 99632
field mean 3.2498996306408
field stddev 0.82933585744974
field sum 323794
field sqrsum 1120824
field min 2
field max 4
statistic Basic.rack[10].node[3].app 	throughput
field count 100006
field mean 50003.5
field stddev 28869.389847495
field sum 5000650021
field sqrsum 3.3339833755009e+014
field min 1
field max 100006
statistic Basic.rack[10].node[3].app 	"End-to-End Delay"
field count 100006
field mean 3.0534128195132e-006
field stddev 4.281833144109e-006
field sum 0.30535960242824
field sqrsum 2.7658901024902e-006
field min 4e-007
field max 3.7886559e-005
statistic Basic.rack[10].node[3].app 	hops
field count 100006
field mean 3.2454152750835
field stddev 0.82978509378704
field sum 324561
field sqrsum 1122193
field min 2
field max 4
statistic Basic.rack[10].node[4].app 	throughput
field count 100046
field mean 50023.5
field stddev 28880.936852879
field sum 5004651081
field sqrsum 3.3379854958351e+014
field min 1
field max 100046
statistic Basic.rack[10].node[4].app 	"End-to-End Delay"
field count 100046
field mean 3.0399141047642e-006
field stddev 4.2616381012827e-006
field sum 0.30413124652524
field sqrsum 2.7415060668108e-006
field min 4e-007
field max 3.6200376e-005
statistic Basic.rack[10].node[4].app 	hops
field count 100046
field mean 3.2475461287808
field stddev 0.82976074831328
field sum 324904
field sqrsum 1124022
field min 2
field max 4
statistic Basic.rack[10].node[5].app 	throughput
field count 100017
field mean 50009
field stddev 28872.565273976
field sum 5001750153
field sqrsum 3.3350836395178e+014
field min 1
field max 100017
statistic Basic.rack[10].node[5].app 	"End-to-End Delay"
field count 100017
field mean 3.0720381402786e-006
field stddev 4.3017509580112e-006
field sum 0.30725603867624
field sqrsum 2.7947044811003e-006
field min 4e-007
field max 4.5123992e-005
statistic Basic.rack[10].node[5].app 	hops
field count 100017
field mean 3.2473479508484
field stddev 0.828244427827
field sum 324790
field sqrsum 1123316
field min 2
field max 4
statistic Basic.rack[10].node[6].app 	throughput
field count 100350
field mean 50175.5
field stddev 28968.694093797
field sum 5035111425
field sqrsum 3.3685063270298e+014
field min 1
field max 100350
statistic Basic.rack[10].node[6].app 	"End-to-End Delay"
field count 100350
field mean 3.0536050783382e-006
field stddev 4.2725107779425e-006
field sum 0.30642926961124
field sqrsum 2.7675195761731e-006
field min 4e-007
field max 3.9377292e-005
statistic Basic.rack[10].node[6].app 	hops
field count 100350
field mean 3.2513004484305
field stddev 0.82792198642645
field sum 326268
field sqrsum 1129580
field min 2
field max 4
statistic Basic.rack[10].node[7].app 	throughput
field count 99563
field mean 49782
field stddev 28741.506762868
field sum 4956445266
field sqrsum 3.2898735882759e+014
field min 1
field max 99563
statistic Basic.rack[10].node[7].app 	"End-to-End Delay"
field count 99563
field mean 3.0399406371266e-006
field stddev 4.2519118961914e-006
field sum 0.30266560965423
field sqrsum 2.7200424689555e-006
field min 4e-007
field max 4.0858677e-005
statistic Basic.rack[10].node[7].app 	hops
field count 99563
field mean 3.2481443909886
field stddev 0.82914692874019
field sum 323395
field sqrsum 1118881
field min 2
field max 4
statistic Basic.rack[10].node[8].app 	throughput
field count 100110
field mean 50055.5
field stddev 28899.412061494
field sum 5011056105
field sqrsum 3.3443955479974e+014
field min 1
field max 100110
statistic Basic.rack[10].node[8].app 	"End-to-End Delay"
field count 100110
field mean 3.0404004119992e-006
field stddev 4.2647507361061e-006
field sum 0.30437448524524
field sqrsum 2.7462126972271e-006
field min 4e-007
field max 3.6848277e-005
statistic Basic.rack[10].node[8].app 	hops
field count 100110
field mean 3.2477374887624
field stddev 0.82955321264612
field sum 325131
field sqrsum 1124831
field min 2
field max 4
statistic Basic.rack[10].node[9].app 	throughput
field count 99706
field mean 49853.5
field stddev 28782.787307116
field sum 4970693071
field sqrsum 3.3040693912244e+014
field min 1
field max 99706
statistic Basic.rack[10].node[9].app 	"End-to-End Delay"
field count 99706
field mean 3.051076622322e-006
field stddev 4.24883750199e-006
field sum 0.30421064570524
field sqrsum 2.7281064782695e-006
field min 4e-007
field max 4.6204508e-005
statistic Basic.rack[10].node[9].app 	hops
field count 99706
field mean 3.2463241931278
field stddev 0.82876352638535
field sum 323678
field sqrsum 1119246
field min 2
field max 4
statistic Basic.rack[10].eps.queue[0] 	dropsum
field count 0
field mean nan
field stddev nan
field sum 0
field sqrsum 0
field min nan
field max nan
statistic Basic.rack[10].eps.queue[1] 	dropsum
field count 0
field mean nan
field stddev nan
field sum 0
field sqrsum 0
field min nan
field max nan
statistic Basic.rack[10].eps.queue[2] 	dropsum
field count 0
field mean nan
field stddev nan
field sum 0
field sqrsum 0
field min nan
field max nan
statistic Basic.rack[10].eps.queue[3] 	dropsum
field count 0
field mean nan
field stddev nan
field sum 0
field sqrsum 0
field min nan
field max nan
statistic Basic.rack[11].node[0].app 	throughput
field count 100561
field mean 50281
field stddev 29029.604547197
field sum 5056307641
field sqrsum 3.3897992056028e+014
field min 1
field max 100561
statistic Basic.rack[11].node[0].app 	"End-to-End Delay"
field count 100561
field mean 3.0438769459953e-006
field stddev 4.268357244991e-006
field sum 0.30609530956624
field sqrsum 2.7638063823524e-006
field min 4e-007
field max 3.8525395e-005
statistic Basic.rack[11].node[0].app 	hops
field count 100561
field mean 3.2488141526039
field stddev 0.82923067910542
field sum 326704
field sqrsum 1130548
field min 2
field max 4
statistic Basic.rack[11].node[1].app 	throughput
field count 99926
field mean 49963.5
field stddev 28846.295836727
field sum 4992652701
field sqrsum 3.3259887341765e+014
field min 1
field max 99926
statistic Basic.rack[11].node[1].app 	"End-to-End Delay"
field count 99926
field mean 3.040780192855e-006
field stddev 4.2549858185546e-006
field sum 0.30385300155123
field sqrsum 2.7330827524429e-006
field min 4e-007
field max 3.9014198e-005
statistic Basic.rack[11].node[1].app 	hops
field count 99926
field mean 3.2500450333247
field stddev 0.82873327863
field sum 324764
field sqrsum 1124126
field min 2
field max 4
statistic Basic.rack[11].node[2].app 	throughput
field count 99459
field mean 49730
field stddev 28711.48454887
field sum 4946096070
field sqrsum 3.2795749471611e+014
field min 1
field max 99459
statistic Basic.rack[11].node[2].app 	"End-to-End Delay"
field count 99459
field mean 3.053555449665e-006
field stddev 4.2767002251725e-006
field sum 0.30370357146824
field sqrsum 2.7464789080083e-006
field min 4e-007
field max 4.0198045e-005
statistic Basic.rack[11].node[2].app 	hops
field count 99459
[...]
field min 2
field max 4
statistic Basic.rack[13].node[2].app 	throughput
field count 100211
field mean 50106
field stddev 28928.568250088
field sum 5021172366
field sqrsum 3.3545280970361e+014
field min 1
field max 100211
statistic Basic.rack[13].node[2].app 	"End-to-End Delay"
field count 100211
field mean 5.3163516318106e-006
field stddev 5.0644931113812e-006
field sum 0.53275691337537
field sqrsum 5.4026184423042e-006
field min 4e-007
field max 3.9657229e-005
statistic Basic.rack[13].node[2].app 	hops
field count 100211
field mean 3.0007184839988
field stddev 0.708452878589
field sum 300705
field sqrsum 952627
field min 2
field max 4
statistic Basic.rack[13].node[3].app 	throughput
field count 100095
field mean 50048
field stddev 28895.081934475
field sum 5009554560
field sqrsum 3.3428924564032e+014
field min 1
field max 100095
statistic Basic.rack[13].node[3].app 	"End-to-End Delay"
field count 100095
field mean 5.3791352884299e-006
field stddev 5.0739888714662e-006
field sum 0.53842454669539
field sqrsum 5.4732148501907e-006
field min 4e-007
field max 3.9756444e-005
statistic Basic.rack[13].node[3].app 	hops
field count 100095
field mean 2.9983116039762
field stddev 0.7042449455438
field sum 300116
field sqrsum 949484
field min 2
field max 4
statistic Basic.rack[13].node[4].app 	throughput
field count 99987
field mean 49994
field stddev 28863.905019938
field sum 4998750078
field sqrsum 3.3320834894935e+014
field min 1
field max 99987
statistic Basic.rack[13].node[4].app 	"End-to-End Delay"
field count 99987
field mean 5.3348961107781e-006
field stddev 5.0661610574163e-006
field sum 0.53342025742837
field sqrsum 5.411981118903e-006
field min 4e-007
field max 3.8552646e-005
statistic Basic.rack[13].node[4].app 	hops
field count 99987
field mean 2.9979497334654
field stddev 0.70725937757615
field sum 299756
field sqrsum 948668
field min 2
field max 4
statistic Basic.rack[13].node[5].app 	throughput
field count 100002
field mean 50001.5
field stddev 28868.235146957
field sum 5000250003
field sqrsum 3.3335833395e+014
field min 1
field max 100002
statistic Basic.rack[13].node[5].app 	"End-to-End Delay"
field count 100002
field mean 5.3441493762863e-006
field stddev 5.083795228054e-006
field sum 0.53442562592738
field sqrsum 5.4405736125236e-006
field min 4e-007
field max 4.0313061e-005
statistic Basic.rack[13].node[5].app 	hops
field count 100002
field mean 3.0023499530009
field stddev 0.70719125872403
field sum 300241
field sqrsum 951441
field min 2
field max 4
statistic Basic.rack[13].node[6].app 	throughput
field count 100131
field mean 50066
field stddev 28905.47423932
field sum 5013158646
field sqrsum 3.3465006330797e+014
field min 1
field max 100131
statistic Basic.rack[13].node[6].app 	"End-to-End Delay"
field count 100131
field mean 5.3200868976777e-006
field stddev 5.0794301932527e-006
field sum 0.53270562115137
field sqrsum 5.4174553836608e-006
field min 4e-007
field max 4.4146284e-005
statistic Basic.rack[13].node[6].app 	hops
field count 100131
field mean 2.995745573299
field stddev 0.70872343024025
field sum 299967
field sqrsum 948919
field min 2
field max 4
statistic Basic.rack[13].node[7].app 	throughput
field count 99717
field mean 49859
field stddev 28785.962733596
field sum 4971789903
field sqrsum 3.3051630643494e+014
field min 1
field max 99717
statistic Basic.rack[13].node[7].app 	"End-to-End Delay"
field count 99717
field mean 5.3540906459719e-006
field stddev 5.0708720615732e-006
field sum 0.53389385694438
field sqrsum 5.4225877487481e-006
field min 4e-007
field max 3.9111677e-005
statistic Basic.rack[13].node[7].app 	hops
field count 99717
field mean 3.0000601702819
field stddev 0.70599968368359
field sum 299157
field sqrsum 947191
field min 2
field max 4
statistic Basic.rack[13].node[8].app 	throughput
field count 100074
field mean 50037.5
field stddev 28889.019756648
field sum 5007452775
field sqrsum 3.3407888848782e+014
field min 1
field max 100074
statistic Basic.rack[13].node[8].app 	"End-to-End Delay"
field count 100074
field mean 5.3291741142192e-006
field stddev 5.0707191857041e-006
field sum 0.53331177030637
field sqrsum 5.4152075772453e-006
field min 4e-007
field max 4.0914082e-005
statistic Basic.rack[13].node[8].app 	hops
field count 100074
field mean 2.9992705398005
field stddev 0.70780205520825
field sum 300149
field sqrsum 950363
field min 2
field max 4
statistic Basic.rack[13].node[9].app 	throughput
field count 99635
field mean 49818
field stddev 28762.291372559
field sum 4963616430
field sqrsum 3.2970160320751e+014
field min 1
field max 99635
statistic Basic.rack[13].node[9].app 	"End-to-End Delay"
field count 99635
field mean 5.3388233357993e-006
field stddev 5.0551431365409e-006
field sum 0.53193366306236
field sqrsum 5.3859941297462e-006
field min 4e-007
field max 3.6822172e-005
statistic Basic.rack[13].node[9].app 	hops
field count 99635
field mean 3.0001505495057
field stddev 0.70662400142661
field sum 298920
field sqrsum 946554
field min 2
field max 4
statistic Basic.rack[13].eps.queue[0] 	dropsum
field count 0
field mean nan
field stddev nan
field sum 0
field sqrsum 0
field min nan
field max nan
statistic Basic.rack[13].eps.queue[1] 	dropsum
field count 0
field mean nan
field stddev nan
field sum 0
field sqrsum 0
field min nan
field max nan
statistic Basic.rack[13].eps.queue[2] 	dropsum
field count 0
field mean nan
field stddev nan
field sum 0
field sqrsum 0
field min nan
field max nan
statistic Basic.rack[13].eps.queue[3] 	dropsum
field count 0
field mean nan
field stddev nan
field sum 0
field sqrsum 0
field min nan
field max nan
statistic Basic.rack[14].node[0].app 	throughput
field count 100236
field mean 50118.5
field stddev 28935.785128453
field sum 5023677966
field sqrsum 3.3570393095931e+014
field min 1
field max 100236
statistic Basic.rack[14].node[0].app 	"End-to-End Delay"
field count 100236
field mean 3.0328253231498e-006
field stddev 4.2703557597162e-006
field sum 0.30399827909124
field sqrsum 2.7498529559799e-006
field min 4e-007
field max 4.5608777e-005
statistic Basic.rack[14].node[0].app 	hops
field count 100236
field mean 3.2465980286524
field stddev 0.83080913950554
field sum 325426
field sqrsum 1125714
field min 2
field max 4
statistic Basic.rack[14].node[1].app 	throughput
field count 99459
field mean 49730
field stddev 28711.48454887
field sum 4946096070
field sqrsum 3.2795749471611e+014
field min 1
field max 99459
statistic Basic.rack[14].node[1].app 	"End-to-End Delay"
field count 99459
field mean 3.0332677051572e-006
field stddev 4.2515891141524e-006
field sum 0.30168577268723
field sqrsum 2.7128975135379e-006
field min 4e-007
field max 3.6285149e-005
statistic Basic.rack[14].node[1].app 	hops
field count 99459
field mean 3.248987019777
field stddev 0.82949996677436
field sum 323141
field sqrsum 1118315
field min 2
field max 4
statistic Basic.rack[14].node[2].app 	throughput
field count 99833
field mean 49917
field stddev 28819.44904921
field sum 4983363861
field sqrsum 3.3167110401143e+014
field min 1
field max 99833
statistic Basic.rack[14].node[2].app 	"End-to-End Delay"
field count 99833
field mean 3.0463702079396e-006
field stddev 4.2771396532616e-006
field sum 0.30412827696923
field sqrsum 2.7528063045342e-006
field min 4e-007
field max 3.8108237e-005
statistic Basic.rack[14].node[2].app 	hops
field count 99833
field mean 3.2512596035379
field stddev 0.82859367268013
field sum 324583
field sqrsum 1123845
field min 2
field max 4
statistic Basic.rack[14].node[3].app 	throughput
field count 99603
field mean 49802
field stddev 28753.053768252
field sum 4960428606
field sqrsum 3.2938403377181e+014
field min 1
field max 99603
statistic Basic.rack[14].node[3].app 	"End-to-End Delay"
field count 99603
field mean 3.0305898103494e-006
field stddev 4.2597584659537e-006
field sum 0.30185583688023
field sqrsum 2.7221335164792e-006
field min 4e-007
field max 4.5665432e-005
statistic Basic.rack[14].node[3].app 	hops
field count 99603
field mean 3.2500727889722
field stddev 0.82954849740494
field sum 323717
field sqrsum 1120645
field min 2
field max 4
statistic Basic.rack[14].node[4].app 	throughput
field count 100369
field mean 50185
field stddev 28974.178921355
field sum 5037018265
field sqrsum 3.3704200316594e+014
field min 1
field max 100369
statistic Basic.rack[14].node[4].app 	"End-to-End Delay"
field count 100369
field mean 3.0399660792101e-006
field stddev 4.2782499713345e-006
field sum 0.30511835540424
field sqrsum 2.7646273918924e-006
field min 4e-007
field max 3.7039163e-005
statistic Basic.rack[14].node[4].app 	hops
field count 100369
field mean 3.2512528768843
field stddev 0.82912558537152
field sum 326325
field sqrsum 1129963
field min 2
field max 4
statistic Basic.rack[14].node[5].app 	throughput
field count 100018
field mean 50009.5
field stddev 28872.853949111
field sum 5001850171
field sqrsum 3.3351836755211e+014
field min 1
field max 100018
statistic Basic.rack[14].node[5].app 	"End-to-End Delay"
field count 100018
field mean 3.0487781237601e-006
field stddev 4.2657805696005e-006
field sum 0.30493269038224
field sqrsum 2.7496698494805e-006
field min 4e-007
field max 4.0433638e-005
statistic Basic.rack[14].node[5].app 	hops
field count 100018
field mean 3.2503749325121
field stddev 0.82824180770875
field sum 325096
field sqrsum 1125294
field min 2
field max 4
statistic Basic.rack[14].node[6].app 	throughput
field count 100256
field mean 50128.5
field stddev 28941.558631145
field sum 5025682896
field sqrsum 3.3590491817522e+014
field min 1
field max 100256
statistic Basic.rack[14].node[6].app 	"End-to-End Delay"
field count 100256
field mean 3.0397291384978e-006
field stddev 4.2709242875565e-006
field sum 0.30475108450923
field sqrsum 2.7550915811144e-006
field min 4e-007
field max 3.7339552e-005
statistic Basic.rack[14].node[6].app 	hops
field count 100256
field mean 3.2528227736993
field stddev 0.82861100117167
field sum 326115
field sqrsum 1129629
field min 2
field max 4
statistic Basic.rack[14].node[7].app 	throughput
field count 99958
field mean 49979.5
field stddev 28855.533441035
field sum 4995850861
field sqrsum 3.3291850552618e+014
field min 1
field max 99958
statistic Basic.rack[14].node[7].app 	"End-to-End Delay"
field count 99958
field mean 3.0631558969391e-006
field stddev 4.2932642576234e-006
field sum 0.30618693714624
field sqrsum 2.7803175395905e-006
field min 4e-007
field max 3.8906558e-005
statistic Basic.rack[14].node[7].app 	hops
field count 99958
field mean 3.2470537625803
field stddev 0.82896052910925
field sum 324569
field sqrsum 1122581
field min 2
field max 4
statistic Basic.rack[14].node[8].app 	throughput
field count 100001
field mean 50001
field stddev 28867.946471822
field sum 5000150001
field sqrsum 3.3334833355e+014
field min 1
field max 100001
statistic Basic.rack[14].node[8].app 	"End-to-End Delay"
field count 100001
field mean 3.0463520687218e-006
field stddev 4.2694493761023e-006
field sum 0.30463825322424
field sqrsum 2.7508551704315e-006
field min 4e-007
field max 4.0174355e-005
statistic Basic.rack[14].node[8].app 	hops
field count 100001
field mean 3.250367496325
field stddev 0.82855626842424
field sum 325040
field sqrsum 1125150
field min 2
field max 4
statistic Basic.rack[14].node[9].app 	throughput
field count 99528
field mean 49764.5
field stddev 28731.403133157
field sum 4952961156
field sqrsum 3.2864052960996e+014
field min 1
field max 99528
statistic Basic.rack[14].node[9].app 	"End-to-End Delay"
field count 99528
field mean 3.0499471723257e-006
field stddev 4.271144660082e-006
field sum 0.30355514216723
field sqrsum 2.74146603215e-006
field min 4e-007
field max 3.9919891e-005
statistic Basic.rack[14].node[9].app 	hops
field count 99528
field mean 3.2459106984969
field stddev 0.82955309987799
field sum 323059
field sqrsum 1117111
field min 2
field max 4
statistic Basic.rack[14].eps.queue[0] 	dropsum
field count 0
field mean nan
field stddev nan
field sum 0
field sqrsum 0
field min nan
field max nan
statistic Basic.rack[14].eps.queue[1] 	dropsum
field count 0
field mean nan
field stddev nan
field sum 0
field sqrsum 0
field min nan
field max nan
statistic Basic.rack[14].eps.queue[2] 	dropsum
field count 0
field mean nan
field stddev nan
field sum 0
field sqrsum 0
field min nan
field max nan
statistic Basic.rack[14].eps.queue[3] 	dropsum
field count 0
field mean nan
field stddev nan
field sum 0
field sqrsum 0
field min nan
field max nan
statistic Basic.rack[15].node[0].app 	throughput
field count 99855
field mean 49928
field stddev 28825.799902171
field sum 4985560440
field sqrsum 3.3189042034428e+014
field min 1
field max 99855
statistic Basic.rack[15].node[0].app 	"End-to-End Delay"
field count 99855
field mean 3.0372536472408e-006
field stddev 4.2642880063783e-006
field sum 0.30328496294523
field sqrsum 2.7369136937714e-006
field min 4e-007
field max 3.8955154e-005
statistic Basic.rack[15].node[0].app 	hops
field count 99855
field mean 3.2461068549397
field stddev 0.83023828627213
field sum 324140
field sqrsum 1121022
field min 2
field max 4
statistic Basic.rack[15].node[1].app 	throughput
field count 99834
field mean 49917.5
field stddev 28819.737724344
field sum 4983463695
field sqrsum 3.3168107083898e+014
field min 1
field max 99834
statistic Basic.rack[15].node[1].app 	"End-to-End Delay"
field count 99834
field mean 3.0408854742796e-006
field stddev 4.2662563084641e-006
field sum 0.30358376043923
field sqrsum 2.7402181788352e-006
field min 4e-007
field max 4.0831908e-005
statistic Basic.rack[15].node[1].app 	hops
field count 99834
field mean 3.2492437446161
field stddev 0.82936082061813
field sum 324385
field sqrsum 1122675
field min 2
field max 4
statistic Basic.rack[15].node[2].app 	throughput
field count 100279
field mean 50140
field stddev 28948.198159241
field sum 5027989060
field sqrsum 3.3613615262818e+014
field min 1
field max 100279
statistic Basic.rack[15].node[2].app 	"End-to-End Delay"
field count 100279
field mean 3.0346394444025e-006
field stddev 4.2579698968614e-006
field sum 0.30431060884524
field sqrsum 2.7415439667343e-006
field min 4e-007
field max 3.6815842e-005
statistic Basic.rack[15].node[2].app 	hops
field count 100279
field mean 3.2513985979118
field stddev 0.82910277393537
field sum 326047
field sqrsum 1129041
field min 2
field max 4
statistic Basic.rack[15].node[3].app 	throughput
field count 99795
field mean 49898
field stddev 28808.479394095
field sum 4979570910
field sqrsum 3.3129251249927e+014
field min 1
field max 99795
statistic Basic.rack[15].node[3].app 	"End-to-End Delay"
field count 99795
field mean 3.0390436318576e-006
field stddev 4.2617885228906e-006
field sum 0.30328135924123
field sqrsum 2.7342278795161e-006
field min 4e-007
field max 3.8502481e-005
statistic Basic.rack[15].node[3].app 	hops
field count 99795
field mean 3.2473270203918
field stddev 0.82989971436968
field sum 324067
field sqrsum 1121083
field min 2
field max 4
statistic Basic.rack[15].node[4].app 	throughput
field count 100124
field mean 50062.5
field stddev 28903.453513378
field sum 5012457750
field sqrsum 3.3457988399325e+014
field min 1
field max 100124
statistic Basic.rack[15].node[4].app 	"End-to-End Delay"
field count 100124
field mean 3.033434354283e-006
field stddev 4.2569466508504e-006
field sum 0.30371958128823
field sqrsum 2.7357018469258e-006
field min 4e-007
field max 4.0415758e-005
statistic Basic.rack[15].node[4].app 	hops
field count 100124
field mean 3.2502397027686
field stddev 0.82929279439085
field sum 325427
field sqrsum 1126573
field min 2
field max 4
statistic Basic.rack[15].node[5].app 	throughput
field count 100186
field mean 50093.5
field stddev 28921.351371723
field sum 5018667391
field sqrsum 3.3520181371228e+014
field min 1
field max 100186
statistic Basic.rack[15].node[5].app 	"End-to-End Delay"
field count 100186
field mean 3.0327453417267e-006
field stddev 4.2395182116846e-006
field sum 0.30383862480623
field sqrsum 2.7221417409518e-006
field min 4e-007
field max 3.8475554e-005
statistic Basic.rack[15].node[5].app 	hops
field count 100186
field mean 3.2502844708842
field stddev 0.82887884799781
field sum 325633
field sqrsum 1127231
field min 2
field max 4
statistic Basic.rack[15].node[6].app 	throughput
field count 100362
field mean 50181.5
field stddev 28972.158195412
field sum 5036315703
field sqrsum 3.3697148982822e+014
field min 1
field max 100362
statistic Basic.rack[15].node[6].app 	"End-to-End Delay"
field count 100362
field mean 3.0349763001657e-006
field stddev 4.2605890708521e-006
field sum 0.30459629143723
field sqrsum 2.7462575442391e-006
field min 4e-007
field max 3.5754411e-005
statistic Basic.rack[15].node[6].app 	hops
field count 100362
field mean 3.2479324844064
field stddev 0.82992198332488
field sum 325969
field sqrsum 1127851
field min 2
field max 4
statistic Basic.rack[15].node[7].app 	throughput
field count 99741
field mean 49871
field stddev 28792.890936827
field sum 4974183411
field sqrsum 3.3075500979217e+014
field min 1
field max 99741
statistic Basic.rack[15].node[7].app 	"End-to-End Delay"
field count 99741
field mean 3.0219255298747e-006
field stddev 4.2632090409473e-006
field sum 0.30140987427523
field sqrsum 2.7236078393651e-006
field min 4e-007
field max 4.6502095e-005
statistic Basic.rack[15].node[7].app 	hops
field count 99741
field mean 3.2460171845079
field stddev 0.83157094096842
field sum 323761
field sqrsum 1119905
field min 2
field max 4
statistic Basic.rack[15].node[8].app 	throughput
field count 100208
field mean 50104.5
field stddev 28927.702224684
field sum 5020871736
field sqrsum 3.354226835713e+014
field min 1
field max 100208
statistic Basic.rack[15].node[8].app 	"End-to-End Delay"
field count 100208
field mean 3.02083350596e-006
field stddev 4.2606646260561e-006
field sum 0.30271168396524
field sqrsum 2.7335256285928e-006
field min 4e-007
field max 3.6987654e-005
statistic Basic.rack[15].node[8].app 	hops
field count 100208
field mean 3.2446810633882
field stddev 0.8321437683105
field sum 325143
field sqrsum 1124375
field min 2
field max 4
statistic Basic.rack[15].node[9].app 	throughput
field count 100032
field mean 50016.5
field stddev 28876.895400995
field sum 5003250528
field sqrsum 3.3365843896144e+014
field min 1
field max 100032
statistic Basic.rack[15].node[9].app 	"End-to-End Delay"
field count 100032
field mean 3.0206593394836e-006
field stddev 4.24288342015e-006
field sum 0.30216259504723
field sqrsum 2.7134943003216e-006
field min 4e-007
field max 4.7386435e-005
statistic Basic.rack[15].node[9].app 	hops
field count 100032
field mean 3.2471009277031
field stddev 0.830799387414
field sum 324814
field sqrsum 1123748
field min 2
field max 4
statistic Basic.rack[15].eps.queue[0] 	dropsum
field count 0
field mean nan
field stddev nan
field sum 0
field sqrsum 0
field min nan
field max nan
statistic Basic.rack[15].eps.queue[1] 	dropsum
field count 0
field mean nan
field stddev nan
field sum 0
field sqrsum 0
field min nan
field max nan
statistic Basic.rack[15].eps.queue[2] 	dropsum
field count 0
field mean nan
field stddev nan
field sum 0
field sqrsum 0
field min nan
field max nan
statistic Basic.rack[15].eps.queue[3] 	dropsum
field count 0
field mean nan
field stddev nan
field sum 0
field sqrsum 0
field min nan
field max nan
