version 2
run Basic-41-20180510-17:20:32-23216
attr configname Basic
attr datetime 20180510-17:20:32
attr experiment Basic
attr inifile omnetpp.ini
attr iterationvars "$0=exponential(0.1 ms), $1=6, $2=3"
attr iterationvarsf exponential(0.1_ms),6,3-
attr measurement "$0=exponential(0.1 ms), $1=6, $2=3"
attr network Networks.Basic
attr processid 23216
attr repetition 0
attr replication #0
attr resultdir results
attr runnumber 41
attr seedset 41
param **.frameCapacity 50
param **.packetLength "1024 bytes"
param **.pattern 6
param **.sendIaTime "exponential(0.1 ms)"
param **.tp 3

statistic Basic.rack[0].node[0].app 	throughput
field count 97041
field mean 48521
field stddev 28013.468073411
field sum 4708526361
field sqrsum 3.0461497390732e+014
field min 1
field max 97041
statistic Basic.rack[0].node[0].app 	"End-to-End Delay"
field count 97041
field mean 0.00012754448809844
field stddev 0.00017637756050612
field sum 12.37704466956
field sqrsum 0.0045974454417633
field min 8.496e-007
field max 0.000486236271
statistic Basic.rack[0].node[0].app 	hops
field count 97041
field mean 5.3336424810132
field stddev 1.0244167573942
field sum 517582
field sqrsum 2862434
field min 4
field max 7
statistic Basic.rack[0].node[1].app 	throughput
field count 97668
field mean 48834.5
field stddev 28194.467382804
field sum 4769567946
field sqrsum 3.1055769795593e+014
field min 1
field max 97668
statistic Basic.rack[0].node[1].app 	"End-to-End Delay"
field count 97668
field mean 0.00012807135678902
field stddev 0.00017660102503466
field sum 12.50847327487
field sqrsum 0.0046480079258742
field min 8.496e-007
field max 0.000484881967
statistic Basic.rack[0].node[1].app 	hops
field count 97668
field mean 5.3306814924028
field stddev 1.0246482616592
field sum 520637
field sqrsum 2877891
field min 4
field max 7
statistic Basic.rack[0].node[2].app 	throughput
field count 97600
field mean 48800.5
field stddev 28174.837473651
field sum 4762928800
field sqrsum 3.099094882296e+014
field min 1
field max 97600
statistic Basic.rack[0].node[2].app 	"End-to-End Delay"
field count 97600
field mean 0.00012676925762028
field stddev 0.00017578879841258
field sum 12.372679543739
field sqrsum 0.0045844505796119
field min 8.496e-007
field max 0.000499388387
statistic Basic.rack[0].node[2].app 	hops
field count 97600
field mean 5.3370081967213
field stddev 1.0260549308535
field sum 520892
field sqrsum 2882756
field min 4
field max 7
statistic Basic.rack[0].node[3].app 	throughput
field count 97392
field mean 48696.5
field stddev 28114.793045655
field sum 4742649528
field sqrsum 3.0793232943716e+014
field min 1
field max 97392
statistic Basic.rack[0].node[3].app 	"End-to-End Delay"
field count 97392
field mean 0.00012735200023712
field stddev 0.00017610125019774
field sum 12.403066007094
field sqrsum 0.0045998109015092
field min 8.496e-007
field max 0.000474238719
statistic Basic.rack[0].node[3].app 	hops
field count 97392
field mean 5.3287539017578
field stddev 1.0236093263334
field sum 518978
field sqrsum 2867550
field min 4
field max 7
statistic Basic.rack[0].node[4].app 	throughput
field count 97299
field mean 48650
field stddev 28087.946258137
field sum 4733596350
field sqrsum 3.0705103870455e+014
field min 1
field max 97299
statistic Basic.rack[0].node[4].app 	"End-to-End Delay"
field count 97299
field mean 0.00012631972625718
field stddev 0.00017573938935041
field sum 12.290783045097
field sqrsum 0.0045575521789855
field min 8.496e-007
field max 0.000485163204
statistic Basic.rack[0].node[4].app 	hops
field count 97299
field mean 5.3252654189663
field stddev 1.02527214138
field sum 518143
field sqrsum 2861527
field min 4
field max 7
statistic Basic.rack[0].node[5].app 	throughput
field count 97918
field mean 48959.5
field stddev 28266.636166454
field sum 4794016321
field sqrsum 3.1294859141856e+014
field min 1
field max 97918
statistic Basic.rack[0].node[5].app 	"End-to-End Delay"
field count 97918
field mean 0.00012559633431429
field stddev 0.00017530080247524
field sum 12.298141863386
field sqrsum 0.0045536273082457
field min 8.496e-007
field max 0.000479875121
statistic Basic.rack[0].node[5].app 	hops
field count 97918
field mean 5.3337486468269
field stddev 1.0255132286255
field sum 522270
field sqrsum 2888634
field min 4
field max 7
statistic Basic.rack[0].node[6].app 	throughput
field count 97424
field mean 48712.5
field stddev 28124.030649962
field sum 4745766600
field sqrsum 3.082359587478e+014
field min 1
field max 97424
statistic Basic.rack[0].node[6].app 	"End-to-End Delay"
field count 97424
field mean 0.00012658622230625
field stddev 0.00017572721829062
field sum 12.332536121964
field sqrsum 0.0045695567815763
field min 8.496e-007
field max 0.000487335911
statistic Basic.rack[0].node[6].app 	hops
field count 97424
field mean 5.3195413861061
field stddev 1.0207970398089
field sum 518251
field sqrsum 2858375
field min 4
field max 7
statistic Basic.rack[0].node[7].app 	throughput
field count 97347
field mean 48674
field stddev 28101.802664598
field sum 4738267878
field sqrsum 3.0750568816907e+014
field min 1
field max 97347
statistic Basic.rack[0].node[7].app 	"End-to-End Delay"
field count 97347
field mean 0.00012714732211848
field stddev 0.00017614840086241
field sum 12.377410366268
field sqrsum 0.0045942314957494
field min 8.496e-007
field max 0.000482656983
statistic Basic.rack[0].node[7].app 	hops
field count 97347
field mean 5.3259576566304
field stddev 1.0258710317755
field sum 518466
field sqrsum 2863776
field min 4
field max 7
statistic Basic.rack[0].node[8].app 	throughput
field count 97088
field mean 48544.5
field stddev 28027.035804737
field sum 4713088416
field sqrsum 3.0505778978454e+014
field min 1
field max 97088
statistic Basic.rack[0].node[8].app 	"End-to-End Delay"
field count 97088
field mean 0.00012752988671022
field stddev 0.0001762038642454
field sum 12.381621640922
field sqrsum 0.0045933647360863
field min 8.496e-007
field max 0.000476935283
statistic Basic.rack[0].node[8].app 	hops
field count 97088
field mean 5.3346654581411
field stddev 1.0253216150702
field sum 517932
field sqrsum 2865060
field min 4
field max 7
statistic Basic.rack[0].node[9].app 	throughput
field count 97200
field mean 48600.5
field stddev 28059.367419812
field sum 4723968600
field sqrsum 3.061147399362e+014
field min 1
field max 97200
statistic Basic.rack[0].node[9].app 	"End-to-End Delay"
field count 97200
field mean 0.00012647096123754
field stddev 0.00017574619015605
field sum 12.292977432289
field sqrsum 0.004556863295654
field min 8.496e-007
field max 0.000485970055
statistic Basic.rack[0].node[9].app 	hops
field count 97200
field mean 5.3285905349794
field stddev 1.0228822003511
field sum 517939
field sqrsum 2861583
field min 4
field max 7
statistic Basic.rack[0].eps.queue[0] 	dropsum
field count 0
field mean nan
field stddev nan
field sum 0
field sqrsum 0
field min nan
field max nan
statistic Basic.rack[0].eps.queue[1] 	dropsum
field count 0
field mean nan
field stddev nan
field sum 0
field sqrsum 0
field min nan
field max nan
statistic Basic.rack[0].eps.queue[2] 	dropsum
field count 0
field mean nan
field stddev nan
field sum 0
field sqrsum 0
field min nan
field max nan
statistic Basic.rack[0].eps.queue[3] 	dropsum
field count 0
field mean nan
field stddev nan
field sum 0
field sqrsum 0
field min nan
field max nan
statistic Basic.rack[1].node[0].app 	throughput
field count 96731
field mean 48366
field stddev 27923.978781685
field sum 4678491546
field sqrsum 3.0170500332127e+014
field min 1
field max 96731
statistic Basic.rack[1].node[0].app 	"End-to-End Delay"
field count 96731
field mean 0.00012802149543414
field stddev 0.00017650124234297
field sum 12.383647274839
field sqrsum 0.004598772606361
field min 8.496e-007
field max 0.000479043366
statistic Basic.rack[1].node[0].app 	hops
field count 96731
field mean 5.332396026093
field stddev 1.0255168446428
field sum 515808
field sqrsum 2852222
field min 4
field max 7
statistic Basic.rack[1].node[1].app 	throughput
field count 97527
field mean 48764
field stddev 28153.764188826
field sum 4755806628
field sqrsum 3.0921462060818e+014
field min 1
field max 97527
statistic Basic.rack[1].node[1].app 	"End-to-End Delay"
field count 97527
field mean 0.00012707872380181
field stddev 0.00017602521973832
field sum 12.393606696219
field sqrsum 0.0045967949325172
field min 8.496e-007
field max 0.000483656786
statistic Basic.rack[1].node[1].app 	hops
field count 97527
field mean 5.3290883550196
field stddev 1.0243378262758
field sum 519730
field sqrsum 2872018
field min 4
field max 7
statistic Basic.rack[1].node[2].app 	throughput
field count 96916
field mean 48458.5
field stddev 27977.383681586
field sum 4696403986
field sqrsum 3.0343935793945e+014
field min 1
field max 96916
statistic Basic.rack[1].node[2].app 	"End-to-End Delay"
field count 96916
field mean 0.00012644962963193
field stddev 0.00017578086309684
field sum 12.254992305409
field sqrsum 0.0045442072782691
field min 8.496e-007
field max 0.000482257887
statistic Basic.rack[1].node[2].app 	hops
field count 96916
field mean 5.3280985595774
field stddev 1.0251097212962
field sum 516378
field sqrsum 2853156
field min 4
field max 7
statistic Basic.rack[1].node[3].app 	throughput
field count 97042
field mean 48521.5
field stddev 28013.756748545
field sum 4708623403
field sqrsum 3.0462439105708e+014
field min 1
field max 97042
statistic Basic.rack[1].node[3].app 	"End-to-End Delay"
field count 97042
field mean 0.00012622323671929
field stddev 0.00017559484660273
field sum 12.248955337714
field sqrsum 0.0045382213295957
field min 8.496e-007
field max 0.000476142376
statistic Basic.rack[1].node[3].app 	hops
field count 97042
field mean 5.3272706663094
field stddev 1.0221181623221
field sum 516969
field sqrsum 2855415
field min 4
field max 7
statistic Basic.rack[1].node[4].app 	throughput
field count 97126
field mean 48563.5
field stddev 28038.005459852
field sum 4716778501
field sqrsum 3.0541612471825e+014
field min 1
field max 97126
statistic Basic.rack[1].node[4].app 	"End-to-End Delay"
field count 97126
field mean 0.00012705760820986
field stddev 0.00017607860246564
field sum 12.340597254991
field sqrsum 0.0045791986322678
field min 8.496e-007
field max 0.000490403654
statistic Basic.rack[1].node[4].app 	hops
field count 97126
field mean 5.3352346436588
field stddev 1.0236269832305
field sum 518190
field sqrsum 2866434
field min 4
field max 7
statistic Basic.rack[1].node[5].app 	throughput
field count 97698
field mean 48849.5
field stddev 28203.127636842
field sum 4772498451
field sqrsum 3.1084395994335e+014
field min 1
field max 97698
statistic Basic.rack[1].node[5].app 	"End-to-End Delay"
field count 97698
field mean 0.00012693191956005
field stddev 0.00017596816726408
field sum 12.400994677177
field sqrsum 0.0045992497229207
field min 8.496e-007
field max 0.000489294076
statistic Basic.rack[1].node[5].app 	hops
field count 97698
field mean 5.3317775184753
field stddev 1.0236352574338
field sum 520904
field sqrsum 2879714
field min 4
field max 7
statistic Basic.rack[1].node[6].app 	throughput
field count 97403
field mean 48702
field stddev 28117.968472135
field sum 4743720906
field sqrsum 3.0803667951171e+014
field min 1
field max 97403
statistic Basic.rack[1].node[6].app 	"End-to-End Delay"
field count 97403
field mean 0.00012623675995115
field stddev 0.00017571409937179
field sum 12.295839129522
field sqrsum 0.0045595169590179
field min 8.496e-007
field max 0.000477357948
statistic Basic.rack[1].node[6].app 	hops
field count 97403
field mean 5.3274950463538
field stddev 1.0215549023708
field sum 518914
field sqrsum 2866158
field min 4
field max 7
statistic Basic.rack[1].node[7].app 	throughput
field count 97089
field mean 48545
field stddev 28027.324479871
field sum 4713185505
field sqrsum 3.0506721605846e+014
field min 1
field max 97089
statistic Basic.rack[1].node[7].app 	"End-to-End Delay"
field count 97089
field mean 0.00012693585741037
field stddev 0.00017596973870502
field sum 12.324075460115
field sqrsum 0.0045707308831983
field min 8.496e-007
field max 0.000478066982
statistic Basic.rack[1].node[7].app 	hops
field count 97089
field mean 5.3293884992121
field stddev 1.0234969957921
field sum 517425
field sqrsum 2859263
field min 4
field max 7
statistic Basic.rack[1].node[8].app 	throughput
field count 96745
field mean 48373
field stddev 27928.020233569
field sum 4679845885
field sqrsum 3.0183602004484e+014
field min 1
field max 96745
statistic Basic.rack[1].node[8].app 	"End-to-End Delay"
field count 96745
field mean 0.00012646989005452
field stddev 0.00017578051453733
field sum 12.235329513324
field sqrsum 0.0045366732495004
field min 8.496e-007
field max 0.000474241074
statistic Basic.rack[1].node[8].app 	hops
field count 96745
field mean 5.3297741485348
field stddev 1.0271921352708
field sum 515629
field sqrsum 2850263
field min 4
field max 7
statistic Basic.rack[1].node[9].app 	throughput
field count 97501
field mean 48751
field stddev 28146.258635326
field sum 4753271251
field sqrsum 3.0896738458625e+014
field min 1
field max 97501
statistic Basic.rack[1].node[9].app 	"End-to-End Delay"
field count 97501
field mean 0.00012750114201807
field stddev 0.00017621025727525
field sum 12.431488847903
field sqrsum 0.0046124093650711
field min 8.496e-007
field max 0.000478435459
statistic Basic.rack[1].node[9].app 	hops
field count 97501
field mean 5.3309299391801
field stddev 1.0249213332285
field sum 519771
field sqrsum 2873283
field min 4
field max 7
statistic Basic.rack[1].eps.queue[0] 	dropsum
field count 0
field mean nan
field stddev nan
field sum 0
field sqrsum 0
field min nan
field max nan
statistic Basic.rack[1].eps.queue[1] 	dropsum
field count 0
field mean nan
field stddev nan
field sum 0
field sqrsum 0
field min nan
field max nan
statistic Basic.rack[1].eps.queue[2] 	dropsum
field count 0
field mean nan
field stddev nan
field sum 0
field sqrsum 0
field min nan
field max nan
statistic Basic.rack[1].eps.queue[3] 	dropsum
field count 0
field mean nan
field stddev nan
field sum 0
field sqrsum 0
field min nan
field max nan
statistic Basic.rack[2].node[0].app 	throughput
field count 92375
field mean 46188
field stddev 26666.509895373
field sum 4266616500
field sqrsum 2.627538883305e+014
field min 1
field max 92375
statistic Basic.rack[2].node[0].app 	"End-to-End Delay"
field count 92375
field mean 0.00036512662593426
field stddev 0.00021858311239888
field sum 33.728572070678
field sqrsum 0.016728697991945
field min 8.496e-007
field max 0.000877646216
statistic Basic.rack[2].node[0].app 	hops
field count 92375
field mean 5.0619431664411
field stddev 1.0275165061506
field sum 467597
field sqrsum 2464477
field min 3
field max 7
statistic Basic.rack[2].node[1].app 	throughput
field count 93078
field mean 46539.5
field stddev 26869.448514996
field sum 4331803581
field sqrsum 2.6879851974274e+014
field min 1
field max 93078
statistic Basic.rack[2].node[1].app 	"End-to-End Delay"
field count 93078
field mean 0.00036525339016149
field stddev 0.00021821027379209
field sum 33.997055049451
field sqrsum 0.016849468316758
field min 8.496e-007
field max 0.000868684864
statistic Basic.rack[2].node[1].app 	hops
field count 93078
field mean 5.0657835363888
field stddev 1.0251214987103
field sum 471513
field sqrsum 2486395
field min 3
field max 7
statistic Basic.rack[2].node[2].app 	throughput
field count 93154
field mean 46577.5
field stddev 26891.387825225
field sum 4338880435
field sqrsum 2.694574916548e+014
field min 1
field max 93154
statistic Basic.rack[2].node[2].app 	"End-to-End Delay"
field count 93154
field mean 0.00036568837300346
field stddev 0.00021855747190658
field sum 34.065334698765
field sqrsum 0.01690697050213
field min 8.496e-007
field max 0.00089589769
statistic Basic.rack[2].node[2].app 	hops
field count 93154
field mean 5.0622839598944
field stddev 1.0298572599204
field sum 471572
field sqrsum 2486030
field min 3
field max 7
statistic Basic.rack[2].node[3].app 	throughput
field count 92897
field mean 46449
field stddev 26817.198315633
field sum 4314972753
field sqrsum 2.6723345421454e+014
field min 1
field max 92897
statistic Basic.rack[2].node[3].app 	"End-to-End Delay"
field count 92897
field mean 0.00036492154688046
field stddev 0.00021868371463556
field sum 33.900116940555
field sqrsum 0.016813408301756
field min 8.496e-007
field max 0.000873549118
statistic Basic.rack[2].node[3].app 	hops
field count 92897
field mean 5.0631344392176
field stddev 1.0267096747064
field sum 470350
field sqrsum 2479370
field min 3
field max 7
statistic Basic.rack[2].node[4].app 	throughput
field count 92197
field mean 46099
field stddev 26615.125721414
field sum 4250189503
field sqrsum 2.612378978019e+014
field min 1
field max 92197
statistic Basic.rack[2].node[4].app 	"End-to-End Delay"
field count 92197
field mean 0.00036565083993441
field stddev 0.0002183721461141
field sum 33.711910489433
field sqrsum 0.016723283185778
field min 8.496e-007
field max 0.000858893991
statistic Basic.rack[2].node[4].app 	hops
field count 92197
field mean 5.0629630031346
field stddev 1.032622784798
field sum 466790
field sqrsum 2461650
field min 3
field max 7
statistic Basic.rack[2].node[5].app 	throughput
field count 92992
field mean 46496.5
field stddev 26844.62245342
field sum 4323802528
field sqrsum 2.6805413772336e+014
field min 1
field max 92992
statistic Basic.rack[2].node[5].app 	"End-to-End Delay"
field count 92992
field mean 0.00036559744758689
field stddev 0.00021886419939834
field sum 33.997637846
field sqrsum 0.016883861520021
field min 8.496e-007
field max 0.000866071487
statistic Basic.rack[2].node[5].app 	hops
field count 92992
field mean 5.0662422573985
field stddev 1.0268829444639
field sum 471120
field sqrsum 2484866
field min 3
field max 7
statistic Basic.rack[2].node[6].app 	throughput
field count 92526
field mean 46263.5
field stddev 26710.099840697
field sum 4280576601
field sqrsum 2.6404451391495e+014
field min 1
field max 92526
statistic Basic.rack[2].node[6].app 	"End-to-End Delay"
field count 92526
field mean 0.00036418961575494
field stddev 0.00021894564591988
field sum 33.697008387342
field sqrsum 0.016707489584296
field min 8.496e-007
field max 0.00086789294
statistic Basic.rack[2].node[6].app 	hops
field count 92526
field mean 5.0607288762078
field stddev 1.024971985143
field sum 468249
field sqrsum 2466885
field min 3
field max 7
statistic Basic.rack[2].node[7].app 	throughput
field count 92392
field mean 46196.5
field stddev 26671.417372661
field sum 4268187028
field sqrsum 2.6289897998966e+014
field min 1
field max 92392
statistic Basic.rack[2].node[7].app 	"End-to-End Delay"
field count 92392
field mean 0.00036648551862952
field stddev 0.00021842613244685
field sum 33.860330037219
field sqrsum 0.016817292945896
field min 8.496e-007
field max 0.000859863595
statistic Basic.rack[2].node[7].app 	hops
field count 92392
field mean 5.0633604641094
field stddev 1.0284092624953
field sum 467814
field sqrsum 2466426
field min 3
field max 7
statistic Basic.rack[2].node[8].app 	throughput
field count 92741
field mean 46371
field stddev 26772.164994636
field sum 4300492911
field sqrsum 2.6588944220367e+014
field min 1
field max 92741
statistic Basic.rack[2].node[8].app 	"End-to-End Delay"
field count 92741
field mean 0.00036561595173856
field stddev 0.00021912819165311
field sum 33.907588980186
field sqrsum 0.016850267240489
field min 8.496e-007
field max 0.000868747651
statistic Basic.rack[2].node[8].app 	hops
field count 92741
field mean 5.0627769810548
field stddev 1.032460605569
field sum 469527
field sqrsum 2475969
field min 3
field max 7
statistic Basic.rack[2].node[9].app 	throughput
field count 92695
field mean 46348
field stddev 26758.885938444
field sum 4296227860
field sqrsum 2.6549399306442e+014
field min 1
field max 92695
statistic Basic.rack[2].node[9].app 	"End-to-End Delay"
field count 92695
field mean 0.00036500107537359
field stddev 0.00021853442722291
field sum 33.833774681755
field sqrsum 0.016776178927241
field min 8.496e-007
field max 0.000869885792
statistic Basic.rack[2].node[9].app 	hops
field count 92695
field mean 5.0612438642861
field stddev 1.0277784535895
field sum 469152
field sqrsum 2472408
field min 3
field max 7
statistic Basic.rack[2].eps.queue[0] 	dropsum
field count 0
field mean nan
field stddev nan
field sum 0
field sqrsum 0
field min nan
field max nan
statistic Basic.rack[2].eps.queue[1] 	dropsum
field count 97303
field mean 48652
field stddev 28089.100958676
field sum 4733985556
field sqrsum 3.0708890903216e+014
field min 1
field max 97303
statistic Basic.rack[2].eps.queue[2] 	dropsum
field count 0
field mean nan
field stddev nan
field sum 0
field sqrsum 0
field min nan
field max nan
statistic Basic.rack[2].eps.queue[3] 	dropsum
field count 0
field mean nan
field stddev nan
field sum 0
field sqrsum 0
field min nan
field max nan
statistic Basic.rack[3].node[0].app 	throughput
field count 93075
field mean 46538
field stddev 26868.582489592
field sum 4331524350
field sqrsum 2.6877252975895e+014
field min 1
field max 93075
statistic Basic.rack[3].node[0].app 	"End-to-End Delay"
field count 93075
field mean 0.00036696519963984
field stddev 0.00022006575214642
field sum 34.155285956478
field sqrsum 0.017041276050887
field min 8.496e-007
field max 0.000871804901
statistic Basic.rack[3].node[0].app 	hops
field count 93075
field mean 5.065592264303
field stddev 1.0305649691733
field sum 471480
field sqrsum 2487176
field min 3
field max 7
statistic Basic.rack[3].node[1].app 	throughput
field count 93012
field mean 46506.5
field stddev 26850.395956112
field sum 4325662578
field sqrsum 2.6822712702415e+014
field min 1
field max 93012
statistic Basic.rack[3].node[1].app 	"End-to-End Delay"
field count 93012
field mean 0.00036674168267017
field stddev 0.00022027527210314
field sum 34.111377388518
field sqrsum 0.017023068856323
field min 8.496e-007
field max 0.000866978226
statistic Basic.rack[3].node[1].app 	hops
field count 93012
field mean 5.0639594890982
field stddev 1.0351807146224
field sum 471009
field sqrsum 2484841
field min 3
field max 7
statistic Basic.rack[3].node[2].app 	throughput
field count 92533
field mean 46267
field stddev 26712.120566639
field sum 4281224311
field sqrsum 2.6410444652128e+014
field min 1
field max 92533
statistic Basic.rack[3].node[2].app 	"End-to-End Delay"
field count 92533
field mean 0.00036685228543046
field stddev 0.00021964973502355
field sum 33.945942527736
field sqrsum 0.016917446033458
field min 8.496e-007
field max 0.000876726354
statistic Basic.rack[3].node[2].app 	hops
field count 92533
field mean 5.0682999578529
field stddev 1.0315681686819
field sum 468985
field sqrsum 2475423
field min 3
field max 7
statistic Basic.rack[3].node[3].app 	throughput
field count 93337
field mean 46669
field stddev 26944.215374857
field sum 4355944453
field sqrsum 2.7104864358792e+014
field min 1
field max 93337
statistic Basic.rack[3].node[3].app 	"End-to-End Delay"
field count 93337
field mean 0.00036748711243416
field stddev 0.00022087051852242
field sum 34.300144613268
field sqrsum 0.017158144545654
field min 8.496e-007
field max 0.000885658334
statistic Basic.rack[3].node[3].app 	hops
field count 93337
field mean 5.0728542807247
field stddev 1.0314366918112
field sum 473485
field sqrsum 2501217
field min 3
field max 7
statistic Basic.rack[3].node[4].app 	throughput
field count 92969
field mean 46485
field stddev 26837.982925324
field sum 4321663965
field sqrsum 2.6785529199604e+014
field min 1
field max 92969
statistic Basic.rack[3].node[4].app 	"End-to-End Delay"
field count 92969
field mean 0.00036699385360826
field stddev 0.00022105543369394
field sum 34.119051576107
field sqrsum 0.017064410466424
field min 8.496e-007
field max 0.000876417116
statistic Basic.rack[3].node[4].app 	hops
field count 92969
field mean 5.0718841764459
field stddev 1.0305577549564
field sum 471528
field sqrsum 2490272
field min 3
field max 7
statistic Basic.rack[3].node[5].app 	throughput
field count 92907
field mean 46454
field stddev 26820.085066979
field sum 4315901778
field sqrsum 2.6731976295969e+014
field min 1
field max 92907
statistic Basic.rack[3].node[5].app 	"End-to-End Delay"
field count 92907
field mean 0.00036746201083688
field stddev 0.00022009959396941
field sum 34.139793040822
field sqrsum 0.017045799587888
field min 8.496e-007
field max 0.000894239126
statistic Basic.rack[3].node[5].app 	hops
field count 92907
field mean 5.0716522974587
field stddev 1.0299897340961
field sum 471192
field sqrsum 2488284
field min 3
field max 7
statistic Basic.rack[3].node[6].app 	throughput
field count 92889
field mean 46445
field stddev 26814.888914556
field sum 4314229605
field sqrsum 2.6716442059576e+014
field min 1
field max 92889
statistic Basic.rack[3].node[6].app 	"End-to-End Delay"
field count 92889
field mean 0.00036625523189585
field stddev 0.00022029012710537
field sum 34.021082235574
field sqrsum 0.016968044085956
field min 8.496e-007
field max 0.000864597682
statistic Basic.rack[3].node[6].app 	hops
field count 92889
field mean 5.0652606874872
field stddev 1.0305617016457
field sum 470507
field sqrsum 2481893
field min 3
field max 7
statistic Basic.rack[3].node[7].app 	throughput
field count 93267
field mean 46634
field stddev 26924.008115435
field sum 4349413278
field sqrsum 2.7043926860391e+014
field min 1
field max 93267
statistic Basic.rack[3].node[7].app 	"End-to-End Delay"
field count 93267
field mean 0.00036686901790375
field stddev 0.00021995117353335
field sum 34.216772692829
field sqrsum 0.017065144722338
field min 8.496e-007
field max 0.000879416034
statistic Basic.rack[3].node[7].app 	hops
field count 93267
field mean 5.0697996075782
field stddev 1.0320887030961
field sum 472845
field sqrsum 2496577
field min 3
field max 7
statistic Basic.rack[3].node[8].app 	throughput
field count 92691
field mean 46346
field stddev 26757.731237906
field sum 4295857086
field sqrsum 2.6545962472465e+014
field min 1
field max 92691
statistic Basic.rack[3].node[8].app 	"End-to-End Delay"
field count 92691
field mean 0.00036675744514576
field stddev 0.00022008159928817
field sum 33.995114348006
field sqrsum 0.016957485815613
field min 8.496e-007
field max 0.000875934707
statistic Basic.rack[3].node[8].app 	hops
field count 92691
field mean 5.0675577995706
field stddev 1.0308906320736
field sum 469717
field sqrsum 2478823
field min 3
field max 7
statistic Basic.rack[3].node[9].app 	throughput
field count 92837
field mean 46419
field stddev 26799.877807557
field sum 4309400703
field sqrsum 2.6671599184318e+014
field min 1
field max 92837
statistic Basic.rack[3].node[9].app 	"End-to-End Delay"
field count 92837
field mean 0.00036654442322255
field stddev 0.00022066330416436
field sum 34.028884618712
field sqrsum 0.016993495673129
field min 8.496e-007
field max 0.00087000014
statistic Basic.rack[3].node[9].app 	hops
field count 92837
field mean 5.0677100724926
field stddev 1.0296582931528
field sum 470471
field sqrsum 2482635
field min 3
field max 7
statistic Basic.rack[3].eps.queue[0] 	dropsum
field count 98932
field mean 49466.5
field stddev 28559.352752937
field sum 4893819778
field sqrsum 3.2277188345799e+014
field min 1
field max 98932
statistic Basic.rack[3].eps.queue[1] 	dropsum
field count 0
field mean nan
field stddev nan
field sum 0
field sqrsum 0
field min nan
field max nan
statistic Basic.rack[3].eps.queue[2] 	dropsum
field count 0
field mean nan
field stddev nan
field sum 0
field sqrsum 0
field min nan
field max nan
statistic Basic.rack[3].eps.queue[3] 	dropsum
field count 0
field mean nan
field stddev nan
field sum 0
field sqrsum 0
field min nan
field max nan
statistic Basic.rack[4].node[0].app 	throughput
field count 97569
field mean 48785
field stddev 28165.888544479
field sum 4759903665
field sqrsum 3.0961428042814e+014
field min 1
field max 97569
statistic Basic.rack[4].node[0].app 	"End-to-End Delay"
field count 97569
field mean 0.000126912808687
field stddev 0.00017595667995669
field sum 12.382755830782
field sqrsum 0.0045923090920735
field min 8.496e-007
field max 0.000492247267
statistic Basic.rack[4].node[0].app 	hops
field count 97569
field mean 5.3338047945556
field stddev 1.0254595221324
field sum 520414
field sqrsum 2878386
field min 4
field max 7
statistic Basic.rack[4].node[1].app 	throughput
field count 96992
field mean 48496.5
field stddev 27999.322991815
field sum 4703772528
field sqrsum 3.0415377128136e+014
field min 1
field max 96992
statistic Basic.rack[4].node[1].app 	"End-to-End Delay"
field count 96992
field mean 0.00012664767987101
field stddev 0.00017574094932671
field sum 12.283811766049
field sqrsum 0.0045512717794256
field min 8.496e-007
field max 0.000480102402
statistic Basic.rack[4].node[1].app 	hops
field count 96992
field mean 5.3281610854503
field stddev 1.0232925681365
field sum 516789
field sqrsum 2855097
field min 4
field max 7
statistic Basic.rack[4].node[2].app 	throughput
field count 96488
field mean 48244.5
field stddev 27853.830723978
field sum 4655015316
field sqrsum 2.9943696354524e+014
field min 1
field max 96488
statistic Basic.rack[4].node[2].app 	"End-to-End Delay"
field count 96488
field mean 0.00012619718144387
field stddev 0.00017576109269963
field sum 12.176513643156
field sqrsum 0.0045173144107994
field min 8.496e-007
field max 0.000478407805
statistic Basic.rack[4].node[2].app 	hops
field count 96488
field mean 5.327750601111
field stddev 1.0260791205096
field sum 514064
field sqrsum 2840390
field min 4
field max 7
statistic Basic.rack[4].node[3].app 	throughput
field count 97096
field mean 48548.5
field stddev 28029.345205814
field sum 4713865156
field sqrsum 3.0513320541304e+014
field min 1
field max 97096
statistic Basic.rack[4].node[3].app 	"End-to-End Delay"
field count 97096
field mean 0.00012623860530442
field stddev 0.00017577030781127
field sum 12.257263620638
field sqrsum 0.004547109415906
field min 8.496e-007
field max 0.000484792876
statistic Basic.rack[4].node[3].app 	hops
field count 97096
field mean 5.3227321413858
field stddev 1.0239667025825
field sum 516816
field sqrsum 2852678
field min 4
field max 7
statistic Basic.rack[4].node[4].app 	throughput
field count 97654
field mean 48827.5
field stddev 28190.42593092
field sum 4768200685
field sqrsum 3.1042416919556e+014
field min 1
field max 97654
statistic Basic.rack[4].node[4].app 	"End-to-End Delay"
field count 97654
field mean 0.00012750619831998
field stddev 0.00017623547144029
field sum 12.451490290739
field sqrsum 0.0046206409943171
field min 8.496e-007
field max 0.000486855886
statistic Basic.rack[4].node[4].app 	hops
field count 97654
field mean 5.3283634054929
field stddev 1.0243104978176
field sum 520336
field sqrsum 2874998
field min 4
field max 7
statistic Basic.rack[4].node[5].app 	throughput
field count 97027
field mean 48514
field stddev 28009.426621526
field sum 4707167878
field sqrsum 3.0448315418843e+014
field min 1
field max 97027
statistic Basic.rack[4].node[5].app 	"End-to-End Delay"
field count 97027
field mean 0.00012552959311565
field stddev 0.00017549689413886
field sum 12.179759831232
field sqrsum 0.0045172395796984
field min 8.496e-007
field max 0.000478216397
statistic Basic.rack[4].node[5].app 	hops
field count 97027
field mean 5.3288878353448
field stddev 1.0226540613489
field sum 517046
field sqrsum 2856752
field min 4
field max 7
statistic Basic.rack[4].node[6].app 	throughput
field count 96965
field mean 48483
field stddev 27991.528763181
field sum 4701154095
field sqrsum 3.0389983826582e+014
field min 1
field max 96965
statistic Basic.rack[4].node[6].app 	"End-to-End Delay"
field count 96965
field mean 0.00012619565884969
field stddev 0.00017568811822506
field sum 12.236562060361
field sqrsum 0.0045371223678164
field min 8.496e-007
field max 0.000477007399
statistic Basic.rack[4].node[6].app 	hops
field count 96965
field mean 5.3247151033878
field stddev 1.0246136523459
field sum 516311
field sqrsum 2851005
field min 4
field max 7
statistic Basic.rack[4].node[7].app 	throughput
field count 97388
field mean 48694.5
field stddev 28113.638345116
field sum 4742259966
field sqrsum 3.0789438979919e+014
field min 1
field max 97388
statistic Basic.rack[4].node[7].app 	"End-to-End Delay"
field count 97388
field mean 0.00012669782544495
field stddev 0.00017597662030789
field sum 12.338847824432
field sqrsum 0.0045791634920017
field min 8.496e-007
field max 0.000483766075
statistic Basic.rack[4].node[7].app 	hops
field count 97388
field mean 5.3305335359593
field stddev 1.023821765946
field sum 519130
field sqrsum 2869322
field min 4
field max 7
statistic Basic.rack[4].node[8].app 	throughput
field count 97301
field mean 48651
field stddev 28088.523608406
field sum 4733790951
field sqrsum 3.0706997347915e+014
field min 1
field max 97301
statistic Basic.rack[4].node[8].app 	"End-to-End Delay"
field count 97301
field mean 0.00012616396427747
field stddev 0.00017578338393844
field sum 12.275879888162
field sqrsum 0.0045553240237839
field min 8.496e-007
field max 0.000491455009
statistic Basic.rack[4].node[8].app 	hops
field count 97301
field mean 5.3272319914492
field stddev 1.0246345619449
field sum 518345
field sqrsum 2863497
field min 4
field max 7
statistic Basic.rack[4].node[9].app 	throughput
field count 97170
field mean 48585.5
field stddev 28050.707165774
field sum 4721053035
field sqrsum 3.0583138929164e+014
field min 1
field max 97170
statistic Basic.rack[4].node[9].app 	"End-to-End Delay"
field count 97170
field mean 0.00012818872801094
field stddev 0.00017651032616516
field sum 12.456098700823
field sqrsum 0.0046241186332977
field min 8.496e-007
field max 0.000484919021
statistic Basic.rack[4].node[9].app 	hops
field count 97170
field mean 5.330616445405
field stddev 1.0259956960355
field sum 517976
field sqrsum 2863418
field min 4
field max 7
statistic Basic.rack[4].eps.queue[0] 	dropsum
field count 0
field mean nan
field stddev nan
field sum 0
field sqrsum 0
field min nan
field max nan
statistic Basic.rack[4].eps.queue[1] 	dropsum
field count 0
field mean nan
field stddev nan
field sum 0
field sqrsum 0
field min nan
field max nan
statistic Basic.rack[4].eps.queue[2] 	dropsum
field count 0
field mean nan
field stddev nan
field sum 0
field sqrsum 0
field min nan
field max nan
statistic Basic.rack[4].eps.queue[3] 	dropsum
field count 0
field mean nan
field stddev nan
field sum 0
field sqrsum 0
field min nan
field max nan
statistic Basic.rack[5].node[0].app 	throughput
field count 96655
field mean 48328
field stddev 27902.039471456
field sum 4671142840
field sqrsum 3.0099443118108e+014
field min 1
field max 96655
statistic Basic.rack[5].node[0].app 	"End-to-End Delay"
field count 96655
field mean 0.00012652667781294
field stddev 0.00017576962447662
field sum 12.22943604401
field sqrsum 0.0045334714639062
field min 8.496e-007
field max 0.000490871849
statistic Basic.rack[5].node[0].app 	hops
field count 96655
field mean 5.3325642749987
field stddev 1.0238433263921
field sum 515419
field sqrsum 2849823
field min 4
field max 7
statistic Basic.rack[5].node[1].app 	throughput
field count 96940
field mean 48470.5
field stddev 27984.311884816
field sum 4698730270
field sqrsum 3.0366484115929e+014
field min 1
field max 96940
statistic Basic.rack[5].node[1].app 	"End-to-End Delay"
field count 96940
field mean 0.00012658067630891
field stddev 0.00017597422899979
field sum 12.270730761386
field sqrsum 0.004555140555286
field min 8.496e-007
field max 0.000480720218
statistic Basic.rack[5].node[1].app 	hops
field count 96940
field mean 5.328172065195
field stddev 1.0259472300129
field sum 516513
field sqrsum 2854105
field min 4
field max 7
statistic Basic.rack[5].node[2].app 	throughput
field count 96907
field mean 48454
field stddev 27974.785605374
field sum 4695531778
field sqrsum 3.0335483051769e+014
field min 1
field max 96907
statistic Basic.rack[5].node[2].app 	"End-to-End Delay"
field count 96907
field mean 0.00012670813924835
field stddev 0.00017597346333354
field sum 12.27890565014
field sqrsum 0.0045566924212818
field min 8.496e-007
field max 0.000481551145
statistic Basic.rack[5].node[2].app 	hops
field count 96907
field mean 5.3328758500418
field stddev 1.0243263806918
field sum 516793
field sqrsum 2857671
field min 4
field max 7
statistic Basic.rack[5].node[3].app 	throughput
field count 96972
field mean 48486.5
field stddev 27993.549489123
field sum 4701832878
field sqrsum 3.0396565917457e+014
field min 1
field max 96972
statistic Basic.rack[5].node[3].app 	"End-to-End Delay"
field count 96972
field mean 0.00012610018789199
field stddev 0.00017547351262491
field sum 12.228187420262
field sqrsum 0.0045278062960118
field min 8.496e-007
field max 0.000481849052
statistic Basic.rack[5].node[3].app 	hops
field count 96972
field mean 5.3234851297282
field stddev 1.0225393747969
field sum 516229
field sqrsum 2849529
field min 4
field max 7
statistic Basic.rack[5].node[4].app 	throughput
field count 96787
field mean 48394
field stddev 27940.144589223
field sum 4683910078
field sqrsum 3.0222929778295e+014
field min 1
field max 96787
statistic Basic.rack[5].node[4].app 	"End-to-End Delay"
field count 96787
field mean 0.00012681782962407
field stddev 0.00017586576768612
field sum 12.274317275824
field sqrsum 0.0045500740402844
field min 8.496e-007
field max 0.000481333485
statistic Basic.rack[5].node[4].app 	hops
field count 96787
field mean 5.3288044882061
field stddev 1.0233573191141
field sum 515759
field sqrsum 2849739
field min 4
field max 7
statistic Basic.rack[5].node[5].app 	throughput
field count 97310
field mean 48655.5
field stddev 28091.121684618
field sum 4734666705
field sqrsum 3.0715518959794e+014
field min 1
field max 97310
statistic Basic.rack[5].node[5].app 	"End-to-End Delay"
field count 97310
field mean 0.00012730548526207
field stddev 0.00017623299447492
field sum 12.388096770852
field sqrsum 0.0045993022431393
field min 8.496e-007
field max 0.000477535788
statistic Basic.rack[5].node[5].app 	hops
field count 97310
field mean 5.3293803309012
field stddev 1.0268402727741
field sum 518602
field sqrsum 2866430
field min 4
field max 7
statistic Basic.rack[5].node[6].app 	throughput
field count 97318
field mean 48659.5
field stddev 28093.431085695
field sum 4735445221
field sqrsum 3.0723095049326e+014
field min 1
field max 97318
statistic Basic.rack[5].node[6].app 	"End-to-End Delay"
field count 97318
field mean 0.00012638706794637
field stddev 0.00017579961852318
field sum 12.299736678404
field sqrsum 0.0045621587703285
field min 8.496e-007
field max 0.00048312758
statistic Basic.rack[5].node[6].app 	hops
field count 97318
field mean 5.3253971516061
field stddev 1.0228773758984
field sum 518257
field sqrsum 2861745
field min 4
field max 7
statistic Basic.rack[5].node[7].app 	throughput
field count 97257
field mean 48629
field stddev 28075.821902484
field sum 4729510653
field sqrsum 3.0665358822276e+014
field min 1
field max 97257
statistic Basic.rack[5].node[7].app 	"End-to-End Delay"
field count 97257
field mean 0.00012663420561076
field stddev 0.00017592490190352
field sum 12.316062935085
field sqrsum 0.0045696663338877
field min 8.496e-007
field max 0.00047462482
statistic Basic.rack[5].node[7].app 	hops
field count 97257
field mean 5.3282437253874
field stddev 1.0284828002606
field sum 518209
field sqrsum 2864019
field min 4
field max 7
statistic Basic.rack[5].node[8].app 	throughput
field count 97338
field mean 48669.5
field stddev 28099.204588386
field sum 4737391791
field sqrsum 3.0742040723217e+014
field min 1
field max 97338
statistic Basic.rack[5].node[8].app 	"End-to-End Delay"
field count 97338
field mean 0.00012779444031041
field stddev 0.00017644772154229
field sum 12.439255230934
field sqrsum 0.0046201381986232
field min 8.496e-007
field max 0.000479624758
statistic Basic.rack[5].node[8].app 	hops
field count 97338
field mean 5.3291212065175
field stddev 1.0272906421004
field sum 518726
field sqrsum 2867076
field min 4
field max 7
statistic Basic.rack[5].node[9].app 	throughput
field count 97569
field mean 48785
field stddev 28165.888544479
field sum 4759903665
field sqrsum 3.0961428042814e+014
field min 1
field max 97569
statistic Basic.rack[5].node[9].app 	"End-to-End Delay"
field count 97569
field mean 0.00012675316236893
field stddev 0.00017580399957988
field sum 12.367179299174
field sqrsum 0.0045831177760579
field min 8.496e-007
field max 0.00049196501
statistic Basic.rack[5].node[9].app 	hops
field count 97569
field mean 5.3270096034601
field stddev 1.0228531641243
field sum 519751
field sqrsum 2870797
field min 4
field max 7
statistic Basic.rack[5].eps.queue[0] 	dropsum
field count 0
field mean nan
field stddev nan
field sum 0
field sqrsum 0
field min nan
field max nan
statistic Basic.rack[5].eps.queue[1] 	dropsum
field count 0
field mean nan
field stddev nan
field sum 0
field sqrsum 0
field min nan
field max nan
statistic Basic.rack[5].eps.queue[2] 	dropsum
field count 0
field mean nan
field stddev nan
field sum 0
field sqrsum 0
field min nan
field max nan
statistic Basic.rack[5].eps.queue[3] 	dropsum
field count 0
field mean nan
field stddev nan
field sum 0
field sqrsum 0
field min nan
field max nan
statistic Basic.rack[6].node[0].app 	throughput
field count 93051
field mean 46526
field stddev 26861.654286361
field sum 4329290826
field sqrsum 2.6856467019703e+014
field min 1
field max 93051
statistic Basic.rack[6].node[0].app 	"End-to-End Delay"
field count 93051
field mean 0.00036625481398672
field stddev 0.00022124334615178
field sum 34.080376696279
field sqrsum 0.017036770952532
field min 8.496e-007
field max 0.000875803045
statistic Basic.rack[6].node[0].app 	hops
field count 93051
field mean 5.0606226692889
field stddev 1.0356100644105
field sum 470896
field sqrsum 2482822
field min 3
field max 7
statistic Basic.rack[6].node[1].app 	throughput
field count 93038
field mean 46519.5
field stddev 26857.901509612
field sum 4328081241
field sqrsum 2.6845212436052e+014
field min 1
field max 93038
statistic Basic.rack[6].node[1].app 	"End-to-End Delay"
field count 93038
field mean 0.00036779286423271
field stddev 0.00022025144271293
field sum 34.218712502483
field sqrsum 0.017098688093063
field min 8.496e-007
field max 0.000877889957
statistic Basic.rack[6].node[1].app 	hops
field count 93038
field mean 5.0654356284529
field stddev 1.028133901467
field sum 471278
field sqrsum 2485574
field min 3
field max 7
statistic Basic.rack[6].node[2].app 	throughput
field count 92724
field mean 46362.5
field stddev 26767.257517348
field sum 4298916450
field sqrsum 2.6574325224535e+014
field min 1
field max 92724
statistic Basic.rack[6].node[2].app 	"End-to-End Delay"
field count 92724
field mean 0.00036829171952399
field stddev 0.00022118039780154
field sum 34.149481401142
field sqrsum 0.017113051631804
field min 8.496e-007
field max 0.00086800399
statistic Basic.rack[6].node[2].app 	hops
field count 92724
field mean 5.0729584573573
field stddev 1.0327585020993
field sum 470385
field sqrsum 2485141
field min 3
field max 7
statistic Basic.rack[6].node[3].app 	throughput
field count 92466
field mean 46233.5
field stddev 26692.779332621
field sum 4275026811
field sqrsum 2.6353117774622e+014
field min 1
field max 92466
statistic Basic.rack[6].node[3].app 	"End-to-End Delay"
field count 92466
field mean 0.00036808232951773
field stddev 0.00021989957467209
field sum 34.035100681187
field sqrsum 0.016998940312338
field min 8.496e-007
field max 0.000880896449
statistic Basic.rack[6].node[3].app 	hops
field count 92466
field mean 5.0717561049467
field stddev 1.0278178015732
field sum 468965
field sqrsum 2476157
field min 3
field max 7
statistic Basic.rack[6].node[4].app 	throughput
field count 92689
field mean 46345
field stddev 26757.153887637
field sum 4295671705
field sqrsum 2.6544244166706e+014
field min 1
field max 92689
statistic Basic.rack[6].node[4].app 	"End-to-End Delay"
field count 92689
field mean 0.00036753175690491
field stddev 0.0002202626073139
field sum 34.066151015759
field sqrsum 0.017017207766368
field min 8.496e-007
field max 0.0008790904
statistic Basic.rack[6].node[4].app 	hops
field count 92689
field mean 5.0647541779499
field stddev 1.0287246884127
field sum 469447
field sqrsum 2475723
field min 3
field max 7
statistic Basic.rack[6].node[5].app 	throughput
field count 93351
field mean 46676
field stddev 26948.256826741
field sum 4357251276
field sqrsum 2.7117062832768e+014
field min 1
field max 93351
statistic Basic.rack[6].node[5].app 	"End-to-End Delay"
field count 93351
field mean 0.00036862570613855
field stddev 0.00021917411047936
field sum 34.41157829374
field sqrsum 0.017169273435129
field min 8.496e-007
field max 0.000875296724
statistic Basic.rack[6].node[5].app 	hops
field count 93351
field mean 5.0762177159323
field stddev 1.0295823197258
field sum 473870
field sqrsum 2504422
field min 3
field max 7
statistic Basic.rack[6].node[6].app 	throughput
field count 93436
field mean 46718.5
field stddev 26972.794213182
field sum 4365189766
field sqrsum 2.7191203571391e+014
field min 1
field max 93436
statistic Basic.rack[6].node[6].app 	"End-to-End Delay"
field count 93436
field mean 0.0003672463695339
field stddev 0.00022036156861727
field sum 34.314031783769
field sqrsum 0.017138834403644
field min 8.496e-007
field max 0.000872332422
statistic Basic.rack[6].node[6].app 	hops
field count 93436
field mean 5.0676505843572
field stddev 1.0299074604906
field sum 473501
field sqrsum 2498645
field min 3
field max 7
statistic Basic.rack[6].node[7].app 	throughput
field count 92735
field mean 46368
field stddev 26770.432943828
field sum 4299936480
field sqrsum 2.6583783962736e+014
field min 1
field max 92735
statistic Basic.rack[6].node[7].app 	"End-to-End Delay"
field count 92735
field mean 0.00036708690809226
field stddev 0.00022038374131192
field sum 34.041804421936
field sqrsum 0.017000297768298
field min 8.496e-007
field max 0.000881030179
statistic Basic.rack[6].node[7].app 	hops
field count 92735
field mean 5.0687874049712
field stddev 1.030307256254
field sum 470054
field sqrsum 2481044
field min 3
field max 7
statistic Basic.rack[6].node[8].app 	throughput
field count 92614
field mean 46307.5
field stddev 26735.503252542
field sum 4288722805
field sqrsum 2.6479861214912e+014
field min 1
field max 92614
statistic Basic.rack[6].node[8].app 	"End-to-End Delay"
field count 92614
field mean 0.00036862881671041
field stddev 0.00022033675019932
field sum 34.140189230818
field sqrsum 0.017081259737137
field min 8.496e-007
field max 0.000866484451
statistic Basic.rack[6].node[8].app 	hops
field count 92614
field mean 5.0725376293001
field stddev 1.0306160166128
field sum 469788
field sqrsum 2481388
field min 3
field max 7
statistic Basic.rack[6].node[9].app 	throughput
field count 92713
field mean 46357
field stddev 26764.082090867
field sum 4297896541
field sqrsum 2.6564868730267e+014
field min 1
field max 92713
statistic Basic.rack[6].node[9].app 	"End-to-End Delay"
field count 92713
field mean 0.00036794147290692
field stddev 0.00022059626263536
field sum 34.112957777619
field sqrsum 0.017063189200363
field min 8.496e-007
field max 0.000866615257
statistic Basic.rack[6].node[9].app 	hops
field count 92713
field mean 5.0690410190588
field stddev 1.031312907133
field sum 469966
field sqrsum 2480886
field min 3
field max 7
statistic Basic.rack[6].eps.queue[0] 	dropsum
field count 0
field mean nan
field stddev nan
field sum 0
field sqrsum 0
field min nan
field max nan
statistic Basic.rack[6].eps.queue[1] 	dropsum
field count 100947
field mean 50474
field stddev 29141.033149152
field sum 5095198878
field sqrsum 3.4289839249127e+014
field min 1
field max 100947
statistic Basic.rack[6].eps.queue[2] 	dropsum
field count 0
field mean nan
field stddev nan
field sum 0
field sqrsum 0
field min nan
field max nan
statistic Basic.rack[6].eps.queue[3] 	dropsum
field count 0
field mean nan
field stddev nan
field sum 0
field sqrsum 0
field min nan
field max nan
statistic Basic.rack[7].node[0].app 	throughput
field count 93055
field mean 46528
field stddev 26862.8089869
field sum 4329663040
field sqrsum 2.6859930601248e+014
field min 1
field max 93055
statistic Basic.rack[7].node[0].app 	"End-to-End Delay"
field count 93055
field mean 0.00036639309399233
field stddev 0.00021953823734408
field sum 34.094709361457
field sqrsum 0.016976993193769
field min 8.496e-007
field max 0.000866860914
statistic Basic.rack[7].node[0].app 	hops
field count 93055
field mean 5.0622427596583
field stddev 1.0315664409391
field sum 471067
field sqrsum 2483677
field min 3
field max 7
statistic Basic.rack[7].node[1].app 	throughput
field count 92675
field mean 46338
field stddev 26753.112435752
field sum 4294374150
field sqrsum 2.6532218102555e+014
field min 1
field max 92675
statistic Basic.rack[7].node[1].app 	"End-to-End Delay"
field count 92675
field mean 0.00036800753704157
field stddev 0.00021965606886942
field sum 34.105098495328
field sqrsum 0.017022341531724
field min 8.496e-007
field max 0.000873742196
statistic Basic.rack[7].node[1].app 	hops
field count 92675
field mean 5.0696088481252
field stddev 1.0322295820705
field sum 469826
field sqrsum 2480578
field min 3
field max 7
statistic Basic.rack[7].node[2].app 	throughput
field count 92909
field mean 46455
field stddev 26820.662417248
field sum 4316087595
field sqrsum 2.6733702693844e+014
field min 1
field max 92909
statistic Basic.rack[7].node[2].app 	"End-to-End Delay"
field count 92909
field mean 0.00036701557489828
field stddev 0.00022066155771137
field sum 34.099050048225
field sqrsum 0.017038714480613
field min 8.496e-007
field max 0.000868786224
statistic Basic.rack[7].node[2].app 	hops
field count 92909
field mean 5.0694658213951
field stddev 1.025704363165
field sum 470999
field sqrsum 2485459
field min 3
field max 7
statistic Basic.rack[7].node[3].app 	throughput
field count 93150
field mean 46575.5
field stddev 26890.233124687
field sum 4338507825
field sqrsum 2.6942278210178e+014
field min 1
field max 93150
statistic Basic.rack[7].node[3].app 	"End-to-End Delay"
field count 93150
field mean 0.00036718380149146
field stddev 0.00021946196571134
field sum 34.203171108929
field sqrsum 0.017045237319075
field min 8.496e-007
field max 0.000872038758
statistic Basic.rack[7].node[3].app 	hops
field count 93150
field mean 5.0669887278583
field stddev 1.0295528492643
field sum 471990
field sqrsum 2490304
field min 3
field max 7
statistic Basic.rack[7].node[4].app 	throughput
field count 92760
field mean 46380.5
field stddev 26777.649822193
field sum 4302255180
field sqrsum 2.6605289441626e+014
field min 1
field max 92760
statistic Basic.rack[7].node[4].app 	"End-to-End Delay"
field count 92760
field mean 0.00036812138242977
field stddev 0.00021956068702186
field sum 34.146939434186
field sqrsum 0.017041841950047
field min 8.496e-007
field max 0.000865251211
statistic Basic.rack[7].node[4].app 	hops
field count 92760
field mean 5.0721970677016
field stddev 1.0301646956171
field sum 470497
field sqrsum 2484893
field min 3
field max 7
statistic Basic.rack[7].node[5].app 	throughput
field count 92608
field mean 46304.5
field stddev 26733.771201734
field sum 4288167136
field sqrsum 2.647471508095e+014
field min 1
field max 92608
statistic Basic.rack[7].node[5].app 	"End-to-End Delay"
field count 92608
field mean 0.00036691911291562
field stddev 0.00021943783201275
field sum 33.97964520889
field sqrsum 0.016927082640137
field min 8.496e-007
field max 0.00086636709
statistic Basic.rack[7].node[5].app 	hops
field count 92608
field mean 5.06949723566
field stddev 1.0280899115303
field sum 469476
field sqrsum 2477890
field min 3
field max 7
statistic Basic.rack[7].node[6].app 	throughput
field count 92640
field mean 46320.5
field stddev 26743.008806041
field sum 4291131120
field sqrsum 2.6502168834824e+014
field min 1
field max 92640
statistic Basic.rack[7].node[6].app 	"End-to-End Delay"
field count 92640
field mean 0.00036747138599312
field stddev 0.00021928290594047
field sum 34.042549198403
field sqrsum 0.016964208388167
field min 8.496e-007
field max 0.000871040931
statistic Basic.rack[7].node[6].app 	hops
field count 92640
field mean 5.0593911917098
field stddev 1.0334449160721
field sum 468702
field sqrsum 2470286
field min 3
field max 7
statistic Basic.rack[7].node[7].app 	throughput
field count 92580
field mean 46290.5
field stddev 26725.688297965
field sum 4285574490
field sqrsum 2.6450708604763e+014
field min 1
field max 92580
statistic Basic.rack[7].node[7].app 	"End-to-End Delay"
field count 92580
field mean 0.00036645517341739
field stddev 0.0002203135733157
field sum 33.926419954982
field sqrsum 0.01692611814492
field min 8.496e-007
field max 0.000890094234
statistic Basic.rack[7].node[7].app 	hops
field count 92580
field mean 5.0745193346295
field stddev 1.0241833869423
field sum 469799
field sqrsum 2481115
field min 3
field max 7
statistic Basic.rack[7].node[8].app 	throughput
field count 92311
field mean 46156
field stddev 26648.034686758
field sum 4260706516
field sqrsum 2.6220813970116e+014
field min 1
field max 92311
statistic Basic.rack[7].node[8].app 	"End-to-End Delay"
field count 92311
field mean 0.00036679192821291
field stddev 0.00021961413201739
field sum 33.858929685262
field sqrsum 0.016871327282568
field min 8.496e-007
field max 0.000874335246
statistic Basic.rack[7].node[8].app 	hops
field count 92311
field mean 5.068204222682
field stddev 1.0255250970967
field sum 467851
field sqrsum 2468247
field min 3
field max 7
statistic Basic.rack[7].node[9].app 	throughput
field count 92587
field mean 46294
field stddev 26727.709023908
field sum 4286222578
field sqrsum 2.6456708862705e+014
field min 1
field max 92587
statistic Basic.rack[7].node[9].app 	"End-to-End Delay"
field count 92587
field mean 0.00036724320400155
field stddev 0.00021980377786833
field sum 34.001946528892
field sqrsum 0.016960156084605
field min 8.496e-007
field max 0.000879313699
statistic Basic.rack[7].node[9].app 	hops
field count 92587
field mean 5.0627949928176
field stddev 1.0316053503014
field sum 468749
field sqrsum 2471711
field min 3
field max 7
statistic Basic.rack[7].eps.queue[0] 	dropsum
field count 98244
field mean 49122.5
field stddev 28360.744260333
field sum 4825990890
field sqrsum 3.1608470799507e+014
field min 1
field max 98244
statistic Basic.rack[7].eps.queue[1] 	dropsum
field count 0
field mean nan
field stddev nan
field sum 0
field sqrsum 0
field min nan
field max nan
statistic Basic.rack[7].eps.queue[2] 	dropsum
field count 0
field mean nan
field stddev nan
field sum 0
field sqrsum 0
field min nan
field max nan
statistic Basic.rack[7].eps.queue[3] 	dropsum
field count 0
field mean nan
field stddev nan
field sum 0
field sqrsum 0
field min nan
field max nan
statistic Basic.rack[8].node[0].app 	throughput
field count 97019
field mean 48510
field stddev 28007.11722045
field sum 4706391690
field sqrsum 3.0440784571197e+014
field min 1
field max 97019
statistic Basic.rack[8].node[0].app 	"End-to-End Delay"
field count 97019
field mean 0.00012766760834454
field stddev 0.00017630222980006
field sum 12.386183693979
field sqrsum 0.0045968741278487
field min 8.496e-007
field max 0.000477807435
statistic Basic.rack[8].node[0].app 	hops
field count 97019
field mean 5.3314711551346
field stddev 1.0245558467304
field sum 517254
field sqrsum 2859566
field min 4
field max 7
statistic Basic.rack[8].node[1].app 	throughput
field count 97095
field mean 48548
field stddev 28029.056530679
field sum 4713768060
field sqrsum 3.0512377777982e+014
field min 1
field max 97095
statistic Basic.rack[8].node[1].app 	"End-to-End Delay"
field count 97095
field mean 0.00012738104469042
field stddev 0.00017623885394334
field sum 12.368062534216
field sqrsum 0.0045912093419753
field min 8.496e-007
field max 0.000475559418
statistic Basic.rack[8].node[1].app 	hops
field count 97095
field mean 5.331520675627
field stddev 1.0255037742198
field sum 517664
field sqrsum 2862046
field min 4
field max 7
statistic Basic.rack[8].node[2].app 	throughput
field count 96783
field mean 48392
field stddev 27938.989888684
field sum 4683522936
field sqrsum 3.021918280509e+014
field min 1
field max 96783
statistic Basic.rack[8].node[2].app 	"End-to-End Delay"
field count 96783
field mean 0.00012655888701253
field stddev 0.0001759976269967
field sum 12.248748761733
field sqrsum 0.0045480264013962
field min 8.496e-007
field max 0.000482069651
statistic Basic.rack[8].node[2].app 	hops
field count 96783
field mean 5.3289214014858
field stddev 1.0244228674792
field sum 515749
field sqrsum 2849953
field min 4
field max 7
statistic Basic.rack[8].node[3].app 	throughput
field count 97143
field mean 48572
field stddev 28042.91293714
field sum 4718429796
field sqrsum 3.0557652325848e+014
field min 1
field max 97143
statistic Basic.rack[8].node[3].app 	"End-to-End Delay"
field count 97143
field mean 0.00012670088478064
field stddev 0.0001759261635402
field sum 12.308104050245
field sqrsum 0.0045659940320141
field min 8.496e-007
field max 0.000473839798
statistic Basic.rack[8].node[3].app 	hops
field count 97143
field mean 5.3288862810496
field stddev 1.0246062259077
field sum 517664
field sqrsum 2860554
field min 4
field max 7
statistic Basic.rack[8].node[4].app 	throughput
field count 97604
field mean 48802.5
field stddev 28175.99217419
field sum 4763319210
field sqrsum 3.0994759322163e+014
field min 1
field max 97604
statistic Basic.rack[8].node[4].app 	"End-to-End Delay"
field count 97604
field mean 0.00012743984184262
field stddev 0.0001764011962908
field sum 12.438638323207
field sqrsum 0.004622327941149
field min 8.496e-007
field max 0.000473958986
statistic Basic.rack[8].node[4].app 	hops
field count 97604
field mean 5.3267181672882
field stddev 1.026688543683
field sum 519909
field sqrsum 2872291
field min 4
field max 7
statistic Basic.rack[8].node[5].app 	throughput
field count 97207
field mean 48604
field stddev 28061.388145754
field sum 4724649028
field sqrsum 3.0618088025954e+014
field min 1
field max 97207
statistic Basic.rack[8].node[5].app 	"End-to-End Delay"
field count 97207
field mean 0.00012648344357058
field stddev 0.00017586215931447
field sum 12.295076099165
field sqrsum 0.0045614620394334
field min 8.496e-007
field max 0.000485017681
statistic Basic.rack[8].node[5].app 	hops
field count 97207
field mean 5.3318793914019
field stddev 1.0263599753618
field sum 518296
field sqrsum 2865890
field min 4
field max 7
statistic Basic.rack[8].node[6].app 	throughput
field count 97553
field mean 48777
field stddev 28161.269742325
field sum 4758342681
field sqrsum 3.0946198848729e+014
field min 1
field max 97553
statistic Basic.rack[8].node[6].app 	"End-to-End Delay"
field count 97553
field mean 0.00012744050530622
field stddev 0.00017616232516713
field sum 12.432203614138
field sqrsum 0.0046117136040337
field min 8.496e-007
field max 0.000477694461
statistic Basic.rack[8].node[6].app 	hops
field count 97553
field mean 5.3281088228963
field stddev 1.025216611026
field sum 519773
field sqrsum 2871941
field min 4
field max 7
statistic Basic.rack[8].node[7].app 	throughput
field count 97001
field mean 48501
field stddev 28001.921068027
field sum 4704645501
field sqrsum 3.042384470435e+014
field min 1
field max 97001
statistic Basic.rack[8].node[7].app 	"End-to-End Delay"
field count 97001
field mean 0.00012702611997702
field stddev 0.00017615018318043
field sum 12.321660663891
field sqrsum 0.0045749747881537
field min 8.496e-007
field max 0.000481219556
statistic Basic.rack[8].node[7].app 	hops
field count 97001
field mean 5.3268213729755
field stddev 1.0223437235145
field sum 516707
field sqrsum 2853789
field min 4
field max 7
statistic Basic.rack[8].node[8].app 	throughput
field count 96975
field mean 48488
field stddev 27994.415514527
field sum 4702123800
field sqrsum 3.039938710446e+014
field min 1
field max 96975
statistic Basic.rack[8].node[8].app 	"End-to-End Delay"
field count 96975
field mean 0.00012730602309
field stddev 0.00017622590751697
field sum 12.345501589153
field sqrsum 0.0045832396021112
field min 8.496e-007
field max 0.000477906303
statistic Basic.rack[8].node[8].app 	hops
field count 96975
field mean 5.334374838876
field stddev 1.0276839186978
field sum 517301
field sqrsum 2861895
field min 4
field max 7
statistic Basic.rack[8].node[9].app 	throughput
field count 97385
field mean 48693
field stddev 28112.772319713
field sum 4741967805
field sqrsum 3.0786593711588e+014
field min 1
field max 97385
statistic Basic.rack[8].node[9].app 	"End-to-End Delay"
field count 97385
field mean 0.00012717369354301
field stddev 0.00017609865182705
field sum 12.384810145686
field sqrsum 0.0045949714843679
field min 8.496e-007
field max 0.000489324612
statistic Basic.rack[8].node[9].app 	hops
field count 97385
field mean 5.3279149766391
field stddev 1.0226043504714
field sum 518859
field sqrsum 2866273
field min 4
field max 7
statistic Basic.rack[8].eps.queue[0] 	dropsum
field count 0
field mean nan
field stddev nan
field sum 0
field sqrsum 0
field min nan
field max nan
statistic Basic.rack[8].eps.queue[1] 	dropsum
field count 0
field mean nan
field stddev nan
field sum 0
field sqrsum 0
field min nan
field max nan
statistic Basic.rack[8].eps.queue[2] 	dropsum
field count 0
field mean nan
field stddev nan
field sum 0
field sqrsum 0
field min nan
field max nan
statistic Basic.rack[8].eps.queue[3] 	dropsum
field count 0
field mean nan
field stddev nan
field sum 0
field sqrsum 0
field min nan
field max nan
statistic Basic.rack[9].node[0].app 	throughput
field count 96929
field mean 48465
field stddev 27981.136458336
field sum 4697663985
field sqrsum 3.035614808227e+014
field min 1
field max 96929
statistic Basic.rack[9].node[0].app 	"End-to-End Delay"
field count 96929
field mean 0.00012680746956883
field stddev 0.00017615007539122
field sum 12.291321217837
field sqrsum 0.0045661956230116
field min 8.496e-007
field max 0.000488705769
statistic Basic.rack[9].node[0].app 	hops
field count 96929
field mean 5.325413446956
field stddev 1.0214651555725
field sum 516187
field sqrsum 2850043
field min 4
field max 7
statistic Basic.rack[9].node[1].app 	throughput
field count 97150
field mean 48575.5
field stddev 28044.933663082
field sum 4719109825
field sqrsum 3.0564258603578e+014
field min 1
field max 97150
statistic Basic.rack[9].node[1].app 	"End-to-End Delay"
field count 97150
field mean 0.00012715117266496
field stddev 0.00017601607404276
field sum 12.3527364244
field sqrsum 0.0045805020462518
field min 8.496e-007
field max 0.000481588657
statistic Basic.rack[9].node[1].app 	hops
field count 97150
field mean 5.3305301080803
field stddev 1.0223261339414
field sum 517861
field sqrsum 2862009
field min 4
field max 7
statistic Basic.rack[9].node[2].app 	throughput
field count 96911
field mean 48456
field stddev 27975.940305913
field sum 4695919416
field sqrsum 3.0339239632246e+014
field min 1
field max 96911
statistic Basic.rack[9].node[2].app 	"End-to-End Delay"
field count 96911
field mean 0.00012683270129204
field stddev 0.00017607536990852
field sum 12.291483914912
field sqrsum 0.0045634178607631
field min 8.496e-007
field max 0.000474382506
statistic Basic.rack[9].node[2].app 	hops
field count 96911
field mean 5.3289306683452
field stddev 1.0249879612772
field sum 516432
field sqrsum 2853844
field min 4
field max 7
statistic Basic.rack[9].node[3].app 	throughput
field count 97619
field mean 48810
field stddev 28180.322301209
field sum 4764783390
field sqrsum 3.1009051476007e+014
field min 1
field max 97619
statistic Basic.rack[9].node[3].app 	"End-to-End Delay"
field count 97619
field mean 0.00012789203649004
field stddev 0.00017657643602946
field sum 12.484692710121
field sqrsum 0.0046403476073901
field min 8.496e-007
field max 0.000476492169
statistic Basic.rack[9].node[3].app 	hops
field count 97619
field mean 5.3285118675668
field stddev 1.0249202518537
field sum 520164
field sqrsum 2874244
field min 4
field max 7
statistic Basic.rack[9].node[4].app 	throughput
field count 96712
field mean 48356.5
field stddev 27918.493954128
field sum 4676653828
field sqrsum 3.015272555603e+014
field min 1
field max 96712
statistic Basic.rack[9].node[4].app 	"End-to-End Delay"
field count 96712
field mean 0.00012781666028089
field stddev 0.00017644836342687
field sum 12.361404849086
field sqrsum 0.0045909961717117
field min 8.496e-007
field max 0.000480236151
statistic Basic.rack[9].node[4].app 	hops
field count 96712
field mean 5.3225246091488
field stddev 1.0247317179378
field sum 514752
field sqrsum 2841334
field min 4
field max 7
statistic Basic.rack[9].node[5].app 	throughput
field count 97152
field mean 48576.5
field stddev 28045.511013351
field sum 4719304128
field sqrsum 3.0566146286368e+014
field min 1
field max 97152
statistic Basic.rack[9].node[5].app 	"End-to-End Delay"
field count 97152
field mean 0.00012701770989145
field stddev 0.0001759820390287
field sum 12.340024551374
field sqrsum 0.0045761368517949
field min 8.496e-007
field max 0.000478134306
statistic Basic.rack[9].node[5].app 	hops
field count 97152
field mean 5.331727602108
field stddev 1.0241853214422
field sum 517988
field sqrsum 2863678
field min 4
field max 7
statistic Basic.rack[9].node[6].app 	throughput
field count 97227
field mean 48614
field stddev 28067.161648446
field sum 4726593378
field sqrsum 3.0636990510633e+014
field min 1
field max 97227
statistic Basic.rack[9].node[6].app 	"End-to-End Delay"
field count 97227
field mean 0.00012666703014062
field stddev 0.00017602194110678
field sum 12.315455339482
field sqrsum 0.0045723856780962
field min 8.496e-007
field max 0.000475413449
statistic Basic.rack[9].node[6].app 	hops
field count 97227
field mean 5.3276147572176
field stddev 1.0264610832982
field sum 517988
field sqrsum 2862080
field min 4
field max 7
statistic Basic.rack[9].node[7].app 	throughput
field count 97379
field mean 48690
field stddev 28111.040268905
field sum 4741383510
field sqrsum 3.0780903700803e+014
field min 1
field max 97379
statistic Basic.rack[9].node[7].app 	"End-to-End Delay"
field count 97379
field mean 0.00012656188580734
field stddev 0.00017592940900478
field sum 12.324469878033
field sqrsum 0.0045737699110863
field min 8.496e-007
field max 0.000483656916
statistic Basic.rack[9].node[7].app 	hops
field count 97379
field mean 5.3271239178878
field stddev 1.0239710865489
field sum 518750
field sqrsum 2865548
field min 4
field max 7
statistic Basic.rack[9].node[8].app 	throughput
field count 97090
field mean 48545.5
field stddev 28027.613155006
field sum 4713282595
field sqrsum 3.0507664252656e+014
field min 1
field max 97090
statistic Basic.rack[9].node[8].app 	"End-to-End Delay"
field count 97090
field mean 0.00012736917693219
field stddev 0.0001763463761777
field sum 12.366273388346
field sqrsum 0.0045943600950707
field min 8.496e-007
field max 0.000480406851
statistic Basic.rack[9].node[8].app 	hops
field count 97090
field mean 5.3269131733443
field stddev 1.0241537848705
field sum 517190
field sqrsum 2856862
field min 4
field max 7
statistic Basic.rack[9].node[9].app 	throughput
field count 96879
field mean 48440
field stddev 27966.702701606
field sum 4692818760
field sqrsum 3.0309195670628e+014
field min 1
field max 96879
statistic Basic.rack[9].node[9].app 	"End-to-End Delay"
field count 96879
field mean 0.00012836234309758
field stddev 0.00017671700424948
field sum 12.43561543695
field sqrsum 0.0046216580699156
field min 8.496e-007
field max 0.000482615579
statistic Basic.rack[9].node[9].app 	hops
field count 96879
field mean 5.3306392510245
field stddev 1.0218860779014
field sum 516427
field sqrsum 2854051
field min 4
field max 7
statistic Basic.rack[9].eps.queue[0] 	dropsum
field count 0
field mean nan
field stddev nan
field sum 0
field sqrsum 0
field min nan
field max nan
statistic Basic.rack[9].eps.queue[1] 	dropsum
field count 0
field mean nan
field stddev nan
field sum 0
field sqrsum 0
field min nan
field max nan
statistic Basic.rack[9].eps.queue[2] 	dropsum
field count 0
field mean nan
field stddev nan
field sum 0
field sqrsum 0
field min nan
field max nan
statistic Basic.rack[9].eps.queue[3] 	dropsum
field count 0
field mean nan
field stddev nan
field sum 0
field sqrsum 0
field min nan
field max nan
statistic Basic.rack[10].node[0].app 	throughput
field count 93520
field mean 46760.5
field stddev 26997.042924488
field sum 4373041960
field sqrsum 2.7264604708012e+014
field min 1
field max 93520
statistic Basic.rack[10].node[0].app 	"End-to-End Delay"
field count 93520
field mean 0.00036997901719042
field stddev 0.00022186347506865
field sum 34.600437687648
field sqrsum 0.017404759221416
field min 8.496e-007
field max 0.00086570729
statistic Basic.rack[10].node[0].app 	hops
field count 93520
field mean 5.07124679213
field stddev 1.0333269828225
field sum 474263
field sqrsum 2504961
field min 3
field max 7
statistic Basic.rack[10].node[1].app 	throughput
field count 93307
field mean 46654
field stddev 26935.555120819
field sum 4353144778
field sqrsum 2.7078737091549e+014
field min 1
field max 93307
statistic Basic.rack[10].node[1].app 	"End-to-End Delay"
field count 93307
field mean 0.00036987174989763
field stddev 0.00022080752320042
field sum 34.511623367698
field sqrsum 0.01731409834536
field min 8.496e-007
field max 0.00087314486
statistic Basic.rack[10].node[1].app 	hops
field count 93307
field mean 5.0709700236853
field stddev 1.0321293235806
field sum 473157
field sqrsum 2498763
field min 3
field max 7
statistic Basic.rack[10].node[2].app 	throughput
field count 92842
field mean 46421.5
field stddev 26801.32118323
field sum 4309864903
field sqrsum 2.6675908817118e+014
field min 1
field max 92842
statistic Basic.rack[10].node[2].app 	"End-to-End Delay"
field count 92842
field mean 0.00036993909173829
field stddev 0.00022172847170936
field sum 34.345885155166
field sqrsum 0.017270275470829
field min 8.496e-007
field max 0.000868139313
statistic Basic.rack[10].node[2].app 	hops
field count 92842
field mean 5.0720255918658
field stddev 1.0347802078697
field sum 470897
field sqrsum 2487813
field min 3
field max 7
statistic Basic.rack[10].node[3].app 	throughput
field count 92862
field mean 46431.5
field stddev 26807.094685922
field sum 4311721953
field sqrsum 2.6693151990698e+014
field min 1
field max 92862
statistic Basic.rack[10].node[3].app 	"End-to-End Delay"
field count 92862
field mean 0.00036830359332723
field stddev 0.00022238061212244
field sum 34.201408283554
field sqrsum 0.01718876928995
field min 8.496e-007
field max 0.000871581778
statistic Basic.rack[10].node[3].app 	hops
field count 92862
field mean 5.0711701234089
field stddev 1.029698857417
field sum 470919
field sqrsum 2486569
field min 3
field max 7
statistic Basic.rack[10].node[4].app 	throughput
field count 93317
field mean 46659
field stddev 26938.441872165
field sum 4354077903
field sqrsum 2.7087444314214e+014
field min 1
field max 93317
statistic Basic.rack[10].node[4].app 	"End-to-End Delay"
field count 93317
field mean 0.00036914247827098
field stddev 0.0002207782003758
field sum 34.447268644813
field sqrsum 0.01726445318935
field min 8.496e-007
field max 0.000883504509
statistic Basic.rack[10].node[4].app 	hops
field count 93317
field mean 5.0743915899568
field stddev 1.0300136771156
field sum 473527
field sqrsum 2501863
field min 3
field max 7
statistic Basic.rack[10].node[5].app 	throughput
field count 93107
field mean 46554
field stddev 26877.820093899
field sum 4334503278
field sqrsum 2.6904984263759e+014
field min 1
field max 93107
statistic Basic.rack[10].node[5].app 	"End-to-End Delay"
field count 93107
field mean 0.00036909468732542
field stddev 0.00022097747403908
field sum 34.365299052808
field sqrsum 0.017230512494448
field min 8.496e-007
field max 0.000878911306
statistic Basic.rack[10].node[5].app 	hops
field count 93107
field mean 5.0698336322725
field stddev 1.0309994523359
field sum 472037
field sqrsum 2492117
field min 3
field max 7
statistic Basic.rack[10].node[6].app 	throughput
field count 93061
field mean 46531
field stddev 26864.541037707
field sum 4330221391
field sqrsum 2.6865126531903e+014
field min 1
field max 93061
statistic Basic.rack[10].node[6].app 	"End-to-End Delay"
field count 93061
field mean 0.00037076351505633
field stddev 0.00022098377696947
field sum 34.503623474657
field sqrsum 0.017337160912008
field min 8.496e-007
field max 0.000878570358
statistic Basic.rack[10].node[6].app 	hops
field count 93061
field mean 5.0740696962208
field stddev 1.0322774788273
field sum 472198
field sqrsum 2495130
field min 3
field max 7
statistic Basic.rack[10].node[7].app 	throughput
field count 93106
field mean 46553.5
field stddev 26877.531418764
field sum 4334410171
field sqrsum 2.6904117372414e+014
field min 1
field max 93106
statistic Basic.rack[10].node[7].app 	"End-to-End Delay"
field count 93106
field mean 0.00036853327524591
field stddev 0.00022254286484905
field sum 34.312659125045
field sqrsum 0.017256412191708
field min 8.496e-007
field max 0.000865693387
statistic Basic.rack[10].node[7].app 	hops
field count 93106
field mean 5.0768693746912
field stddev 1.032363087661
field sum 472687
field sqrsum 2498999
field min 3
field max 7
statistic Basic.rack[10].node[8].app 	throughput
field count 93217
field mean 46609
field stddev 26909.574358705
field sum 4344751153
field sqrsum 2.7000456040318e+014
field min 1
field max 93217
statistic Basic.rack[10].node[8].app 	"End-to-End Delay"
field count 93217
field mean 0.00037060604462169
field stddev 0.00022270914255816
field sum 34.5467836615
field sqrsum 0.017426700992067
field min 8.496e-007
field max 0.000864126094
statistic Basic.rack[10].node[8].app 	hops
field count 93217
field mean 5.0761341815334
field stddev 1.0335757303015
field sum 473182
field sqrsum 2501516
field min 3
field max 7
statistic Basic.rack[10].node[9].app 	throughput
field count 93546
field mean 46773.5
field stddev 27004.548477988
field sum 4375473831
field sqrsum 2.7287350848776e+014
field min 1
field max 93546
statistic Basic.rack[10].node[9].app 	"End-to-End Delay"
field count 93546
field mean 0.0003693056177577
field stddev 0.00022087900734422
field sum 34.547063318762
field sqrsum 0.017322254605047
field min 8.496e-007
field max 0.000871607225
statistic Basic.rack[10].node[9].app 	hops
field count 93546
field mean 5.0677100036346
field stddev 1.0286251231048
field sum 474064
field sqrsum 2501396
field min 3
field max 7
statistic Basic.rack[10].eps.queue[0] 	dropsum
field count 0
field mean nan
field stddev nan
field sum 0
field sqrsum 0
field min nan
field max nan
statistic Basic.rack[10].eps.queue[1] 	dropsum
field count 99098
field mean 49549.5
field stddev 28607.27282528
field sum 4910256351
field sqrsum 3.2439935933305e+014
field min 1
field max 99098
statistic Basic.rack[10].eps.queue[2] 	dropsum
field count 0
field mean nan
field stddev nan
field sum 0
field sqrsum 0
field min nan
field max nan
statistic Basic.rack[10].eps.queue[3] 	dropsum
field count 0
field mean nan
field stddev nan
field sum 0
field sqrsum 0
field min nan
field max nan
statistic Basic.rack[11].node[0].app 	throughput
field count 92691
field mean 46346
field stddev 26757.731237906
field sum 4295857086
field sqrsum 2.6545962472465e+014
field min 1
field max 92691
statistic Basic.rack[11].node[0].app 	"End-to-End Delay"
field count 92691
field mean 0.00036583979815508
field stddev 0.00021821299350745
field sum 33.910056730793
field sqrsum 0.016819259747355
field min 8.496e-007
field max 0.000867048095
statistic Basic.rack[11].node[0].app 	hops
field count 92691
field mean 5.0621419555297
field stddev 1.029199660022
field sum 469215
field sqrsum 2473415
field min 3
field max 7
statistic Basic.rack[11].node[1].app 	throughput
field count 92942
field mean 46471.5
field stddev 26830.18869669
field sum 4319154153
field sqrsum 2.6762198991014e+014
field min 1
field max 92942
statistic Basic.rack[11].node[1].app 	"End-to-End Delay"
field count 92942
field mean 0.00036609382422964
field stddev 0.00021793519771814
field sum 34.025492211552
field sqrsum 0.016870825103362
field min 8.496e-007
field max 0.000866627015
statistic Basic.rack[11].node[1].app 	hops
field count 92942
field mean 5.0613931268963
field stddev 1.0273463143022
field sum 470416
field sqrsum 2479054
field min 3
field max 7
statistic Basic.rack[11].node[2].app 	throughput
field count 92645
field mean 46323
field stddev 26744.452181714
field sum 4291594335
field sqrsum 2.650646019755e+014
field min 1
field max 92645
statistic Basic.rack[11].node[2].app 	"End-to-End Delay"
field count 92645
field mean 0.00036397324445065
field stddev 0.00021773928974493
field sum 33.72030123213
field sqrsum 0.016665576383289
field min 8.496e-007
field max 0.00087081192
statistic Basic.rack[11].node[2].app 	hops
field count 92645
field mean 5.0595175130876
field stddev 1.023997604491
field sum 468739
field sqrsum 2468737
field min 3
field max 7
statistic Basic.rack[11].node[3].app 	throughput
field count 93115
field mean 46558
field stddev 26880.129494976
field sum 4335248170
[...]
field sum 519041
field sqrsum 2871245
field min 4
field max 7
statistic Basic.rack[13].node[2].app 	throughput
field count 96993
field mean 48497
field stddev 27999.61166695
field sum 4703869521
field sqrsum 3.0416317892341e+014
field min 1
field max 96993
statistic Basic.rack[13].node[2].app 	"End-to-End Delay"
field count 96993
field mean 0.00012787818552572
field stddev 0.00017653576002402
field sum 12.403288848696
field sqrsum 0.0046088535865501
field min 8.496e-007
field max 0.000479091315
statistic Basic.rack[13].node[2].app 	hops
field count 96993
field mean 5.3313022589259
field stddev 1.0244753729562
field sum 517099
field sqrsum 2858609
field min 4
field max 7
statistic Basic.rack[13].node[3].app 	throughput
field count 96872
field mean 48436.5
field stddev 27964.681975664
field sum 4692140628
field sqrsum 3.0302626199062e+014
field min 1
field max 96872
statistic Basic.rack[13].node[3].app 	"End-to-End Delay"
field count 96872
field mean 0.00012670589375455
field stddev 0.00017595305742357
field sum 12.27425333979
field sqrsum 0.0045542958732923
field min 8.496e-007
field max 0.000481473695
statistic Basic.rack[13].node[3].app 	hops
field count 96872
field mean 5.3317264018499
field stddev 1.0249590984314
field sum 516495
field sqrsum 2855577
field min 4
field max 7
statistic Basic.rack[13].node[4].app 	throughput
field count 97510
field mean 48755.5
field stddev 28148.856711537
field sum 4754148805
field sqrsum 3.0905295136664e+014
field min 1
field max 97510
statistic Basic.rack[13].node[4].app 	"End-to-End Delay"
field count 97510
field mean 0.0001265697918145
field stddev 0.00017589867011523
field sum 12.341820399832
field sqrsum 0.0045790634611579
field min 8.496e-007
field max 0.000485381442
statistic Basic.rack[13].node[4].app 	hops
field count 97510
field mean 5.3321915700954
field stddev 1.0223163466693
field sum 519942
field sqrsum 2874340
field min 4
field max 7
statistic Basic.rack[13].node[5].app 	throughput
field count 96828
field mean 48414.5
field stddev 27951.980269741
field sum 4687879206
field sqrsum 3.0261354113211e+014
field min 1
field max 96828
statistic Basic.rack[13].node[5].app 	"End-to-End Delay"
field count 96828
field mean 0.00012687517709072
field stddev 0.00017598786593639
field sum 12.28506964734
field sqrsum 0.0045575699867827
field min 8.496e-007
field max 0.000477396784
statistic Basic.rack[13].node[5].app 	hops
field count 96828
field mean 5.3252881397943
field stddev 1.0250228344665
field sum 515637
field sqrsum 2847649
field min 4
field max 7
statistic Basic.rack[13].node[6].app 	throughput
field count 97439
field mean 48720
field stddev 28128.360776981
field sum 4747228080
field sqrsum 3.0837835366744e+014
field min 1
field max 97439
statistic Basic.rack[13].node[6].app 	"End-to-End Delay"
field count 97439
field mean 0.00012781915822304
field stddev 0.00017628458653078
field sum 12.454570958095
field sqrsum 0.0046199409542669
field min 8.496e-007
field max 0.000484251705
statistic Basic.rack[13].node[6].app 	hops
field count 97439
field mean 5.3287903200977
field stddev 1.0257143806696
field sum 519232
field sqrsum 2869392
field min 4
field max 7
statistic Basic.rack[13].node[7].app 	throughput
field count 97523
field mean 48762
field stddev 28152.609488287
field sum 4755416526
field sqrsum 3.0917657571557e+014
field min 1
field max 97523
statistic Basic.rack[13].node[7].app 	"End-to-End Delay"
field count 97523
field mean 0.00012692594506148
field stddev 0.00017608430517035
field sum 12.37819894023
field sqrsum 0.0045948507700776
field min 8.496e-007
field max 0.0004868961
statistic Basic.rack[13].node[7].app 	hops
field count 97523
field mean 5.3229494580766
field stddev 1.0217167097316
field sum 519110
field sqrsum 2865000
field min 4
field max 7
statistic Basic.rack[13].node[8].app 	throughput
field count 97142
field mean 48571.5
field stddev 28042.624262005
field sum 4718332653
field sqrsum 3.0556708649604e+014
field min 1
field max 97142
statistic Basic.rack[13].node[8].app 	"End-to-End Delay"
field count 97142
field mean 0.00012756968104229
field stddev 0.00017622618351482
field sum 12.39237395581
field sqrsum 0.0045976698144044
field min 8.496e-007
field max 0.000474686808
statistic Basic.rack[13].node[8].app 	hops
field count 97142
field mean 5.3315661608779
field stddev 1.025596506986
field sum 517919
field sqrsum 2863497
field min 4
field max 7
statistic Basic.rack[13].node[9].app 	throughput
field count 97137
field mean 48569
field stddev 28041.180886332
field sum 4717846953
field sqrsum 3.0551990559802e+014
field min 1
field max 97137
statistic Basic.rack[13].node[9].app 	"End-to-End Delay"
field count 97137
field mean 0.00012689929576404
field stddev 0.00017617318032587
field sum 12.326616892632
field sqrsum 0.0045790480116103
field min 8.496e-007
field max 0.000477290544
statistic Basic.rack[13].node[9].app 	hops
field count 97137
field mean 5.3212061315462
field stddev 1.0218289908748
field sum 516886
field sqrsum 2851880
field min 4
field max 7
statistic Basic.rack[13].eps.queue[0] 	dropsum
field count 0
field mean nan
field stddev nan
field sum 0
field sqrsum 0
field min nan
field max nan
statistic Basic.rack[13].eps.queue[1] 	dropsum
field count 0
field mean nan
field stddev nan
field sum 0
field sqrsum 0
field min nan
field max nan
statistic Basic.rack[13].eps.queue[2] 	dropsum
field count 0
field mean nan
field stddev nan
field sum 0
field sqrsum 0
field min nan
field max nan
statistic Basic.rack[13].eps.queue[3] 	dropsum
field count 0
field mean nan
field stddev nan
field sum 0
field sqrsum 0
field min nan
field max nan
statistic Basic.rack[14].node[0].app 	throughput
field count 92628
field mean 46314.5
field stddev 26739.544704426
field sum 4290019506
field sqrsum 2.6491871454101e+014
field min 1
field max 92628
statistic Basic.rack[14].node[0].app 	"End-to-End Delay"
field count 92628
field mean 0.00036482500962238
field stddev 0.00021816064275101
field sum 33.793010991301
field sqrsum 0.01673703111567
field min 8.496e-007
field max 0.000867652949
statistic Basic.rack[14].node[0].app 	hops
field count 92628
field mean 5.0609858789999
field stddev 1.0278411942981
field sum 468789
field sqrsum 2470391
field min 3
field max 7
statistic Basic.rack[14].node[1].app 	throughput
field count 92758
field mean 46379.5
field stddev 26777.072471924
field sum 4302069661
field sqrsum 2.6603568576658e+014
field min 1
field max 92758
statistic Basic.rack[14].node[1].app 	"End-to-End Delay"
field count 92758
field mean 0.00036483228371864
field stddev 0.00021740453927105
field sum 33.841112973174
field sqrsum 0.016730465432991
field min 8.496e-007
field max 0.000872987529
statistic Basic.rack[14].node[1].app 	hops
field count 92758
field mean 5.0590569007525
field stddev 1.0263436404222
field sum 469268
field sqrsum 2471762
field min 3
field max 7
statistic Basic.rack[14].node[2].app 	throughput
field count 92830
field mean 46415.5
field stddev 26797.857081615
field sum 4308750865
field sqrsum 2.6665566478226e+014
field min 1
field max 92830
statistic Basic.rack[14].node[2].app 	"End-to-End Delay"
field count 92830
field mean 0.00036358735269067
field stddev 0.00021645156418586
field sum 33.751813950275
field sqrsum 0.016620890120251
field min 8.496e-007
field max 0.000870986483
statistic Basic.rack[14].node[2].app 	hops
field count 92830
field mean 5.0550468598513
field stddev 1.0230761839022
field sum 469260
field sqrsum 2469294
field min 3
field max 7
statistic Basic.rack[14].node[3].app 	throughput
field count 92542
field mean 46271.5
field stddev 26714.718642851
field sum 4282057153
field sqrsum 2.6418151605434e+014
field min 1
field max 92542
statistic Basic.rack[14].node[3].app 	"End-to-End Delay"
field count 92542
field mean 0.00036432949607329
field stddev 0.00021670558848248
field sum 33.715780225615
field sqrsum 0.016629500000469
field min 8.496e-007
field max 0.000868543322
statistic Basic.rack[14].node[3].app 	hops
field count 92542
field mean 5.0550668885479
field stddev 1.0273035272509
field sum 467806
field sqrsum 2462454
field min 3
field max 7
statistic Basic.rack[14].node[4].app 	throughput
field count 92421
field mean 46211
field stddev 26679.788951564
field sum 4270866831
field sqrsum 2.6314661254751e+014
field min 1
field max 92421
statistic Basic.rack[14].node[4].app 	"End-to-End Delay"
field count 92421
field mean 0.00036540631000804
field stddev 0.00021638054344981
field sum 33.771216577253
field sqrsum 0.016667369902296
field min 8.496e-007
field max 0.000873463507
statistic Basic.rack[14].node[4].app 	hops
field count 92421
field mean 5.058590580063
field stddev 1.029071747042
field sum 467520
field sqrsum 2462864
field min 3
field max 7
statistic Basic.rack[14].node[5].app 	throughput
field count 92738
field mean 46369.5
field stddev 26771.298969232
field sum 4300214691
field sqrsum 2.6586364008087e+014
field min 1
field max 92738
statistic Basic.rack[14].node[5].app 	"End-to-End Delay"
field count 92738
field mean 0.00036410421971213
field stddev 0.00021729901366192
field sum 33.766297127664
field sqrsum 0.016673386812179
field min 8.496e-007
field max 0.000874820859
statistic Basic.rack[14].node[5].app 	hops
field count 92738
field mean 5.0596734887533
field stddev 1.0280356064656
field sum 469224
field sqrsum 2472130
field min 3
field max 7
statistic Basic.rack[14].node[6].app 	throughput
field count 92469
field mean 46235
field stddev 26693.645358025
field sum 4275304215
field sqrsum 2.635568287393e+014
field min 1
field max 92469
statistic Basic.rack[14].node[6].app 	"End-to-End Delay"
field count 92469
field mean 0.00036486075705864
field stddev 0.00021693000085863
field sum 33.738309344455
field sqrsum 0.016661202050996
field min 8.496e-007
field max 0.000866689526
statistic Basic.rack[14].node[6].app 	hops
field count 92469
field mean 5.0589819290789
field stddev 1.0252379983326
field sum 467799
field sqrsum 2463781
field min 3
field max 7
statistic Basic.rack[14].node[7].app 	throughput
field count 92329
field mean 46165
field stddev 26653.230839181
field sum 4262368285
field sqrsum 2.623615550466e+014
field min 1
field max 92329
statistic Basic.rack[14].node[7].app 	"End-to-End Delay"
field count 92329
field mean 0.00036361167082842
field stddev 0.00021712878219508
field sum 33.571901955917
field sqrsum 0.016559930434213
field min 8.496e-007
field max 0.000875652867
statistic Basic.rack[14].node[7].app 	hops
field count 92329
field mean 5.0558329452285
field stddev 1.0222970259406
field sum 466800
field sqrsum 2456554
field min 3
field max 7
statistic Basic.rack[14].node[8].app 	throughput
field count 92473
field mean 46237
field stddev 26694.800058563
field sum 4275674101
field sqrsum 2.6359103265255e+014
field min 1
field max 92473
statistic Basic.rack[14].node[8].app 	"End-to-End Delay"
field count 92473
field mean 0.00036368475888162
field stddev 0.00021746748782937
field sum 33.63102070806
field sqrsum 0.016604285492433
field min 8.496e-007
field max 0.000867468761
statistic Basic.rack[14].node[8].app 	hops
field count 92473
field mean 5.0591199593395
field stddev 1.0251392347089
field sum 467832
field sqrsum 2463998
field min 3
field max 7
statistic Basic.rack[14].node[9].app 	throughput
field count 93309
field mean 46655
field stddev 26936.132471088
field sum 4353331395
field sqrsum 2.7080478386784e+014
field min 1
field max 93309
statistic Basic.rack[14].node[9].app 	"End-to-End Delay"
field count 93309
field mean 0.00036401784982161
field stddev 0.00021738947552023
field sum 33.966141549005
field sqrsum 0.016773848452325
field min 8.496e-007
field max 0.000864724922
statistic Basic.rack[14].node[9].app 	hops
field count 93309
field mean 5.0649990890482
field stddev 1.0247441304597
field sum 472610
field sqrsum 2491752
field min 3
field max 7
statistic Basic.rack[14].eps.queue[0] 	dropsum
field count 0
field mean nan
field stddev nan
field sum 0
field sqrsum 0
field min nan
field max nan
statistic Basic.rack[14].eps.queue[1] 	dropsum
field count 98380
field mean 49190.5
field stddev 28400.004078638
field sum 4839361390
field sqrsum 3.1739919548593e+014
field min 1
field max 98380
statistic Basic.rack[14].eps.queue[2] 	dropsum
field count 0
field mean nan
field stddev nan
field sum 0
field sqrsum 0
field min nan
field max nan
statistic Basic.rack[14].eps.queue[3] 	dropsum
field count 0
field mean nan
field stddev nan
field sum 0
field sqrsum 0
field min nan
field max nan
statistic Basic.rack[15].node[0].app 	throughput
field count 92752
field mean 46376.5
field stddev 26775.340421116
field sum 4301513128
field sqrsum 2.6598406426988e+014
field min 1
field max 92752
statistic Basic.rack[15].node[0].app 	"End-to-End Delay"
field count 92752
field mean 0.00036693618749436
field stddev 0.00021937084056899
field sum 34.034065262477
field sqrsum 0.016951838993841
field min 8.496e-007
field max 0.000883867997
statistic Basic.rack[15].node[0].app 	hops
field count 92752
field mean 5.0647641021218
field stddev 1.0299708273086
field sum 469767
field sqrsum 2477653
field min 3
field max 7
statistic Basic.rack[15].node[1].app 	throughput
field count 92815
field mean 46408
field stddev 26793.526954596
field sum 4307358520
field sqrsum 2.6652642314204e+014
field min 1
field max 92815
statistic Basic.rack[15].node[1].app 	"End-to-End Delay"
field count 92815
field mean 0.00036547573849024
field stddev 0.00021775628168434
field sum 33.921630667972
field sqrsum 0.016798568542511
field min 8.496e-007
field max 0.000868939275
statistic Basic.rack[15].node[1].app 	hops
field count 92815
field mean 5.0646985939773
field stddev 1.0259969267083
field sum 470080
field sqrsum 2478516
field min 3
field max 7
statistic Basic.rack[15].node[2].app 	throughput
field count 92939
field mean 46470
field stddev 26829.322671286
field sum 4318875330
field sqrsum 2.6759607582169e+014
field min 1
field max 92939
statistic Basic.rack[15].node[2].app 	"End-to-End Delay"
field count 92939
field mean 0.00036735928658237
field stddev 0.00021905580417462
field sum 34.142004735679
field sqrsum 0.01700205382144
field min 8.496e-007
field max 0.000874531697
statistic Basic.rack[15].node[2].app 	hops
field count 92939
field mean 5.0718320618901
field stddev 1.0293757647582
field sum 471371
field sqrsum 2489193
field min 3
field max 7
statistic Basic.rack[15].node[3].app 	throughput
field count 92610
field mean 46305.5
field stddev 26734.348552003
field sum 4288352355
field sqrsum 2.6476430384848e+014
field min 1
field max 92610
statistic Basic.rack[15].node[3].app 	"End-to-End Delay"
field count 92610
field mean 0.00036664813733054
field stddev 0.00021969088690297
field sum 33.955283998181
field sqrsum 0.016919330351223
field min 8.496e-007
field max 0.000883716857
statistic Basic.rack[15].node[3].app 	hops
field count 92610
field mean 5.0669690098262
field stddev 1.0315910700715
field sum 469252
field sqrsum 2476238
field min 3
field max 7
statistic Basic.rack[15].node[4].app 	throughput
field count 92833
field mean 46417
field stddev 26798.723107019
field sum 4309029361
field sqrsum 2.6668151812293e+014
field min 1
field max 92833
statistic Basic.rack[15].node[4].app 	"End-to-End Delay"
field count 92833
field mean 0.00036588181457824
field stddev 0.00021933094989032
field sum 33.965906492741
field sqrsum 0.016893289781262
field min 8.496e-007
field max 0.000887887021
statistic Basic.rack[15].node[4].app 	hops
field count 92833
field mean 5.0633180011418
field stddev 1.0293322659411
field sum 470043
field sqrsum 2478335
field min 3
field max 7
statistic Basic.rack[15].node[5].app 	throughput
field count 92954
field mean 46477.5
field stddev 26833.652798305
field sum 4320269535
field sqrsum 2.677256629941e+014
field min 1
field max 92954
statistic Basic.rack[15].node[5].app 	"End-to-End Delay"
field count 92954
field mean 0.00036777756298136
field stddev 0.00021971435717074
field sum 34.18639558937
field sqrsum 0.017060239443701
field min 8.496e-007
field max 0.000868758679
statistic Basic.rack[15].node[5].app 	hops
field count 92954
field mean 5.0696365944446
field stddev 1.0278377737837
field sum 471243
field sqrsum 2487231
field min 3
field max 7
statistic Basic.rack[15].node[6].app 	throughput
field count 92992
field mean 46496.5
field stddev 26844.62245342
field sum 4323802528
field sqrsum 2.6805413772336e+014
field min 1
field max 92992
statistic Basic.rack[15].node[6].app 	"End-to-End Delay"
field count 92992
field mean 0.0003667418925234
field stddev 0.00021956946394471
field sum 34.104062069536
field sqrsum 0.01699055407259
field min 8.496e-007
field max 0.000881646545
statistic Basic.rack[15].node[6].app 	hops
field count 92992
field mean 5.0683929800413
field stddev 1.0276527449893
field sum 471320
field sqrsum 2487040
field min 3
field max 7
statistic Basic.rack[15].node[7].app 	throughput
field count 92963
field mean 46482
field stddev 26836.250874517
field sum 4321106166
field sqrsum 2.6780343537529e+014
field min 1
field max 92963
statistic Basic.rack[15].node[7].app 	"End-to-End Delay"
field count 92963
field mean 0.0003663371867558
field stddev 0.00021846200353414
field sum 34.055803892379
field sqrsum 0.016912578985954
field min 8.496e-007
field max 0.000870161384
statistic Basic.rack[15].node[7].app 	hops
field count 92963
field mean 5.0637457913363
field stddev 1.027275044643
field sum 470741
field sqrsum 2481815
field min 3
field max 7
statistic Basic.rack[15].node[8].app 	throughput
field count 92540
field mean 46270.5
field stddev 26714.141292581
field sum 4281872070
field sqrsum 2.6416438819589e+014
field min 1
field max 92540
statistic Basic.rack[15].node[8].app 	"End-to-End Delay"
field count 92540
field mean 0.00036668798312888
field stddev 0.00021933699443431
field sum 33.933305958747
field sqrsum 0.016894868097167
field min 8.496e-007
field max 0.000876434335
statistic Basic.rack[15].node[8].app 	hops
field count 92540
field mean 5.0629889777394
field stddev 1.0319454505992
field sum 468529
field sqrsum 2470703
field min 3
field max 7
statistic Basic.rack[15].node[9].app 	throughput
field count 92808
field mean 46404.5
field stddev 26791.506228654
field sum 4306708836
field sqrsum 2.664661246706e+014
field min 1
field max 92808
statistic Basic.rack[15].node[9].app 	"End-to-End Delay"
field count 92808
field mean 0.00036585072289116
field stddev 0.00021907348096692
field sum 33.953873890083
field sqrsum 0.016876153297815
field min 8.496e-007
field max 0.000863448268
statistic Basic.rack[15].node[9].app 	hops
field count 92808
field mean 5.0642401517111
field stddev 1.027696238804
field sum 470002
field sqrsum 2478222
field min 3
field max 7
statistic Basic.rack[15].eps.queue[0] 	dropsum
field count 98465
field mean 49233
field stddev 28424.541465079
field sum 4847727345
field sqrsum 3.1822259792606e+014
field min 1
field max 98465
statistic Basic.rack[15].eps.queue[1] 	dropsum
field count 0
field mean nan
field stddev nan
field sum 0
field sqrsum 0
field min nan
field max nan
statistic Basic.rack[15].eps.queue[2] 	dropsum
field count 0
field mean nan
field stddev nan
field sum 0
field sqrsum 0
field min nan
field max nan
statistic Basic.rack[15].eps.queue[3] 	dropsum
field count 0
field mean nan
field stddev nan
field sum 0
field sqrsum 0
field min nan
field max nan
