version 2
run Basic-25-20180510-16:28:01-18884
attr configname Basic
attr datetime 20180510-16:28:01
attr experiment Basic
attr inifile omnetpp.ini
attr iterationvars "$0=exponential(0.25 ms), $1=6, $2=3"
attr iterationvarsf exponential(0.25_ms),6,3-
attr measurement "$0=exponential(0.25 ms), $1=6, $2=3"
attr network Networks.Basic
attr processid 18884
attr repetition 0
attr replication #0
attr resultdir results
attr runnumber 25
attr seedset 25
param **.frameCapacity 50
param **.packetLength "1024 bytes"
param **.pattern 6
param **.sendIaTime "exponential(0.25 ms)"
param **.tp 3

statistic Basic.rack[0].node[0].app 	throughput
field count 40221
field mean 20111
field stddev 11610.946925208
field sum 808884531
field sqrsum 21689699442411
field min 1
field max 40221
statistic Basic.rack[0].node[0].app 	"End-to-End Delay"
field count 40221
field mean 1.4049557566448e-005
field stddev 1.082822394282e-005
field sum 0.56508725488011
field sqrsum 1.2655038363165e-005
field min 8.496e-007
field max 7.7456206e-005
statistic Basic.rack[0].node[0].app 	hops
field count 40221
field mean 5.3357201461923
field stddev 1.0291351303441
field sum 214608
field sqrsum 1187686
field min 4
field max 7
statistic Basic.rack[0].node[1].app 	throughput
field count 39869
field mean 19935
field stddev 11509.333277823
field sum 794788515
field sqrsum 21125213799195
field min 1
field max 39869
statistic Basic.rack[0].node[1].app 	"End-to-End Delay"
field count 39869
field mean 1.405161437947e-005
field stddev 1.0781015314551e-005
field sum 0.56022381369511
field sqrsum 1.2505918246303e-005
field min 8.496e-007
field max 7.3153796e-005
statistic Basic.rack[0].node[1].app 	hops
field count 39869
field mean 5.3383079585643
field stddev 1.0300601610386
field sum 212833
field sqrsum 1178469
field min 4
field max 7
statistic Basic.rack[0].node[2].app 	throughput
field count 39910
field mean 19955.5
field stddev 11521.168958342
field sum 796424005
field sqrsum 21190453501035
field min 1
field max 39910
statistic Basic.rack[0].node[2].app 	"End-to-End Delay"
field count 39910
field mean 1.4071187292511e-005
field stddev 1.080950084184e-005
field sum 0.5615810848441
field sqrsum 1.2565292039693e-005
field min 8.496e-007
field max 8.0629706e-005
statistic Basic.rack[0].node[2].app 	hops
field count 39910
field mean 5.3299674267101
field stddev 1.0278350480778
field sum 212719
field sqrsum 1175947
field min 4
field max 7
statistic Basic.rack[0].node[3].app 	throughput
field count 40031
field mean 20016
field stddev 11556.098649631
field sum 801260496
field sqrsum 21383773030416
field min 1
field max 40031
statistic Basic.rack[0].node[3].app 	"End-to-End Delay"
field count 40031
field mean 1.3971565394947e-005
field stddev 1.0801529565782e-005
field sum 0.55929573432511
field sqrsum 1.2484658756885e-005
field min 8.496e-007
field max 9.2138155e-005
statistic Basic.rack[0].node[3].app 	hops
field count 40031
field mean 5.3295196222927
field stddev 1.0276748415104
field sum 213346
field sqrsum 1179308
field min 4
field max 7
statistic Basic.rack[0].node[4].app 	throughput
field count 39818
field mean 19909.5
field stddev 11494.610845957
field sum 792756471
field sqrsum 21044249027009
field min 1
field max 39818
statistic Basic.rack[0].node[4].app 	"End-to-End Delay"
field count 39818
field mean 1.4018536465847e-005
field stddev 1.0800634311228e-005
field sum 0.55819008499711
field sqrsum 1.2469808495022e-005
field min 8.496e-007
field max 7.2351728e-005
statistic Basic.rack[0].node[4].app 	hops
field count 39818
field mean 5.334974132302
field stddev 1.0285635442923
field sum 212428
field sqrsum 1175422
field min 4
field max 7
statistic Basic.rack[0].node[5].app 	throughput
field count 40103
field mean 20052
field stddev 11576.883259323
field sum 804145356
field sqrsum 21499362189564
field min 1
field max 40103
statistic Basic.rack[0].node[5].app 	"End-to-End Delay"
field count 40103
field mean 1.3992126351099e-005
field stddev 1.0818395337425e-005
field sum 0.56112624305811
field sqrsum 1.2544794241982e-005
field min 8.496e-007
field max 8.0403063e-005
statistic Basic.rack[0].node[5].app 	hops
field count 40103
field mean 5.3424182729472
field stddev 1.0334043735002
field sum 214247
field sqrsum 1187423
field min 4
field max 7
statistic Basic.rack[0].node[6].app 	throughput
field count 39895
field mean 19948
field stddev 11516.838831323
field sum 795825460
field sqrsum 21166569759620
field min 1
field max 39895
statistic Basic.rack[0].node[6].app 	"End-to-End Delay"
field count 39895
field mean 1.3982842941349e-005
field stddev 1.082757906764e-005
field sum 0.5578455191451
field sqrsum 1.2477297952724e-005
field min 8.496e-007
field max 7.341404e-005
statistic Basic.rack[0].node[6].app 	hops
field count 39895
field mean 5.3320967539792
field stddev 1.0277525881391
field sum 212724
field sqrsum 1176404
field min 4
field max 7
statistic Basic.rack[0].node[7].app 	throughput
field count 39844
field mean 19922.5
field stddev 11502.116399457
field sum 793792090
field sqrsum 21085499286670
field min 1
field max 39844
statistic Basic.rack[0].node[7].app 	"End-to-End Delay"
field count 39844
field mean 1.397287023266e-005
field stddev 1.0794523043841e-005
field sum 0.55673504155011
field sqrsum 1.2421761688059e-005
field min 8.496e-007
field max 9.8126746e-005
statistic Basic.rack[0].node[7].app 	hops
field count 39844
field mean 5.3368637686979
field stddev 1.02867325933
field sum 212642
field sqrsum 1177002
field min 4
field max 7
statistic Basic.rack[0].node[8].app 	throughput
field count 39958
field mean 19979.5
field stddev 11535.025364804
field sum 798340861
field sqrsum 21267002196179
field min 1
field max 39958
statistic Basic.rack[0].node[8].app 	"End-to-End Delay"
field count 39958
field mean 1.4012745205143e-005
field stddev 1.0772448939449e-005
field sum 0.5599212729071
field sqrsum 1.2482870415093e-005
field min 8.496e-007
field max 7.6733564e-005
statistic Basic.rack[0].node[8].app 	hops
field count 39958
field mean 5.336928775214
field stddev 1.0278418607889
field sum 213253
field sqrsum 1180329
field min 4
field max 7
statistic Basic.rack[0].node[9].app 	throughput
field count 39937
field mean 19969
field stddev 11528.963186977
field sum 797501953
field sqrsum 21233489498625
field min 1
field max 39937
statistic Basic.rack[0].node[9].app 	"End-to-End Delay"
field count 39937
field mean 1.3988046056592e-005
field stddev 1.0806369613243e-005
field sum 0.55864059536211
field sqrsum 1.2477921577778e-005
field min 8.496e-007
field max 7.5462931e-005
statistic Basic.rack[0].node[9].app 	hops
field count 39937
field mean 5.3305456093347
field stddev 1.027046447015
field sum 212886
field sqrsum 1176924
field min 4
field max 7
statistic Basic.rack[0].eps.queue[0] 	dropsum
field count 0
field mean nan
field stddev nan
field sum 0
field sqrsum 0
field min nan
field max nan
statistic Basic.rack[0].eps.queue[1] 	dropsum
field count 0
field mean nan
field stddev nan
field sum 0
field sqrsum 0
field min nan
field max nan
statistic Basic.rack[0].eps.queue[2] 	dropsum
field count 0
field mean nan
field stddev nan
field sum 0
field sqrsum 0
field min nan
field max nan
statistic Basic.rack[0].eps.queue[3] 	dropsum
field count 0
field mean nan
field stddev nan
field sum 0
field sqrsum 0
field min nan
field max nan
statistic Basic.rack[1].node[0].app 	throughput
field count 39922
field mean 19961.5
field stddev 11524.633059958
field sum 796903003
field sqrsum 21209573424845
field min 1
field max 39922
statistic Basic.rack[1].node[0].app 	"End-to-End Delay"
field count 39922
field mean 1.3992395268777e-005
field stddev 1.0777054652839e-005
field sum 0.55860440392011
field sqrsum 1.2452834450489e-005
field min 8.496e-007
field max 9.0134667e-005
statistic Basic.rack[1].node[0].app 	hops
field count 39922
field mean 5.3335754721707
field stddev 1.0290582265226
field sum 212927
field sqrsum 1177937
field min 4
field max 7
statistic Basic.rack[1].node[1].app 	throughput
field count 40046
field mean 20023.5
field stddev 11560.42877665
field sum 801861081
field sqrsum 21407819853511
field min 1
field max 40046
statistic Basic.rack[1].node[1].app 	"End-to-End Delay"
field count 40046
field mean 1.3977548840286e-005
field stddev 1.0815972507588e-005
field sum 0.5597449208581
field sqrsum 1.250853675755e-005
field min 8.496e-007
field max 7.9365974e-005
statistic Basic.rack[1].node[1].app 	hops
field count 40046
field mean 5.3315936672826
field stddev 1.0285446272512
field sum 213509
field sqrsum 1180707
field min 4
field max 7
statistic Basic.rack[1].node[2].app 	throughput
field count 39779
field mean 19890
field stddev 11483.352515707
field sum 791204310
field sqrsum 20982474566430
field min 1
field max 39779
statistic Basic.rack[1].node[2].app 	"End-to-End Delay"
field count 39779
field mean 1.3941311576337e-005
field stddev 1.0743424355379e-005
field sum 0.5545714331951
field sqrsum 1.2322676317651e-005
field min 8.496e-007
field max 6.7548438e-005
statistic Basic.rack[1].node[2].app 	hops
field count 39779
field mean 5.3320847683451
field stddev 1.0287872193491
field sum 212105
field sqrsum 1173063
field min 4
field max 7
statistic Basic.rack[1].node[3].app 	throughput
field count 39924
field mean 19962.5
field stddev 11525.210410227
field sum 796982850
field sqrsum 21212761196550
field min 1
field max 39924
statistic Basic.rack[1].node[3].app 	"End-to-End Delay"
field count 39924
field mean 1.3965202174459e-005
field stddev 1.0837490398806e-005
field sum 0.55754673161311
field sqrsum 1.2475257012197e-005
field min 8.496e-007
field max 7.0674479e-005
statistic Basic.rack[1].node[3].app 	hops
field count 39924
field mean 5.3313295260996
field stddev 1.0256482524819
field sum 212848
field sqrsum 1176760
field min 4
field max 7
statistic Basic.rack[1].node[4].app 	throughput
field count 40233
field mean 20117
field stddev 11614.411026824
field sum 809367261
field sqrsum 21709118463629
field min 1
field max 40233
statistic Basic.rack[1].node[4].app 	"End-to-End Delay"
field count 40233
field mean 1.3971809889894e-005
field stddev 1.0699110989309e-005
field sum 0.56212782730011
field sqrsum 1.2459339441742e-005
field min 8.496e-007
field max 7.5506594e-005
statistic Basic.rack[1].node[4].app 	hops
field count 40233
field mean 5.3302761414759
field stddev 1.0246428094984
field sum 214453
field sqrsum 1185333
field min 4
field max 7
statistic Basic.rack[1].node[5].app 	throughput
field count 40287
field mean 20144
field stddev 11629.999484093
field sum 811541328
field sqrsum 21796647501200
field min 1
field max 40287
statistic Basic.rack[1].node[5].app 	"End-to-End Delay"
field count 40287
field mean 1.3957069103708e-005
field stddev 1.0821072011539e-005
field sum 0.5622884429811
field sqrsum 1.2565211975511e-005
field min 8.496e-007
field max 7.0146569e-005
statistic Basic.rack[1].node[5].app 	hops
field count 40287
field mean 5.3231811750689
field stddev 1.0289000365564
field sum 214455
field sqrsum 1184231
field min 4
field max 7
statistic Basic.rack[1].node[6].app 	throughput
field count 40097
field mean 20049
field stddev 11575.151208516
field sum 803904753
field sqrsum 21489713888945
field min 1
field max 40097
statistic Basic.rack[1].node[6].app 	"End-to-End Delay"
field count 40097
field mean 1.399552740315e-005
field stddev 1.0777317777202e-005
field sum 0.56117866228411
field sqrsum 1.2511164940426e-005
field min 8.496e-007
field max 7.2292951e-005
statistic Basic.rack[1].node[6].app 	hops
field count 40097
field mean 5.3265830361374
field stddev 1.024763164658
field sum 213580
field sqrsum 1179758
field min 4
field max 7
statistic Basic.rack[1].node[7].app 	throughput
field count 39719
field mean 19860
field stddev 11466.03200763
field sum 788819340
field sqrsum 20887673183420
field min 1
field max 39719
statistic Basic.rack[1].node[7].app 	"End-to-End Delay"
field count 39719
field mean 1.3968755923566e-005
field stddev 1.0790573368021e-005
field sum 0.5548250165281
field sqrsum 1.2374839095037e-005
field min 8.496e-007
field max 8.0917912e-005
statistic Basic.rack[1].node[7].app 	hops
field count 39719
field mean 5.3313527530905
field stddev 1.0264646852927
field sum 211756
field sqrsum 1170794
field min 4
field max 7
statistic Basic.rack[1].node[8].app 	throughput
field count 39997
field mean 19999
field stddev 11546.283695054
field sum 799900003
field sqrsum 21329333579995
field min 1
field max 39997
statistic Basic.rack[1].node[8].app 	"End-to-End Delay"
field count 39997
field mean 1.4010495118162e-005
field stddev 1.0778788924559e-005
field sum 0.56037777324111
field sqrsum 1.2497996954366e-005
field min 8.496e-007
field max 7.1785714e-005
statistic Basic.rack[1].node[8].app 	hops
field count 39997
field mean 5.3250743805785
field stddev 1.0247387869848
field sum 212987
field sqrsum 1176171
field min 4
field max 7
statistic Basic.rack[1].node[9].app 	throughput
field count 39958
field mean 19979.5
field stddev 11535.025364804
field sum 798340861
field sqrsum 21267002196179
field min 1
field max 39958
statistic Basic.rack[1].node[9].app 	"End-to-End Delay"
field count 39958
field mean 1.3964890609793e-005
field stddev 1.0801166721966e-005
field sum 0.5580090989861
field sqrsum 1.2454127525128e-005
field min 8.496e-007
field max 7.5988681e-005
statistic Basic.rack[1].node[9].app 	hops
field count 39958
field mean 5.333925621903
field stddev 1.0258494310853
field sum 213133
field sqrsum 1178885
field min 4
field max 7
statistic Basic.rack[1].eps.queue[0] 	dropsum
field count 0
field mean nan
field stddev nan
field sum 0
field sqrsum 0
field min nan
field max nan
statistic Basic.rack[1].eps.queue[1] 	dropsum
field count 0
field mean nan
field stddev nan
field sum 0
field sqrsum 0
field min nan
field max nan
statistic Basic.rack[1].eps.queue[2] 	dropsum
field count 0
field mean nan
field stddev nan
field sum 0
field sqrsum 0
field min nan
field max nan
statistic Basic.rack[1].eps.queue[3] 	dropsum
field count 0
field mean nan
field stddev nan
field sum 0
field sqrsum 0
field min nan
field max nan
statistic Basic.rack[2].node[0].app 	throughput
field count 40114
field mean 20057.5
field stddev 11580.058685804
field sum 804586555
field sqrsum 21517058240365
field min 1
field max 40114
statistic Basic.rack[2].node[0].app 	"End-to-End Delay"
field count 40114
field mean 1.7725158219253e-005
field stddev 1.0373623293047e-005
field sum 0.7110269968071
field sqrsum 1.6919708588414e-005
field min 8.496e-007
field max 0.000108789287
statistic Basic.rack[2].node[0].app 	hops
field count 40114
field mean 5.083761280351
field stddev 1.0366187189895
field sum 203930
field sqrsum 1079836
field min 3
field max 7
statistic Basic.rack[2].node[1].app 	throughput
field count 40421
field mean 20211
field stddev 11668.681952132
field sum 816948831
field sqrsum 22014864781511
field min 1
field max 40421
statistic Basic.rack[2].node[1].app 	"End-to-End Delay"
field count 40421
field mean 1.766784272188e-005
field stddev 1.0389870615048e-005
field sum 0.71415187066111
field sqrsum 1.6980838139061e-005
field min 8.496e-007
field max 9.5502887e-005
statistic Basic.rack[2].node[1].app 	hops
field count 40421
field mean 5.0870092278766
field stddev 1.0338289460052
field sum 205622
field sqrsum 1089202
field min 3
field max 7
statistic Basic.rack[2].node[2].app 	throughput
field count 40095
field mean 20048
field stddev 11574.573858246
field sum 803824560
field sqrsum 21486498430320
field min 1
field max 40095
statistic Basic.rack[2].node[2].app 	"End-to-End Delay"
field count 40095
field mean 1.7725500799928e-005
field stddev 1.0379912200997e-005
field sum 0.71070395457309
field sqrsum 1.6917414409579e-005
field min 8.496e-007
field max 9.2405296e-005
statistic Basic.rack[2].node[2].app 	hops
field count 40095
field mean 5.0912083800973
field stddev 1.0346596302919
field sum 204132
field sqrsum 1082200
field min 3
field max 7
statistic Basic.rack[2].node[3].app 	throughput
field count 39810
field mean 19905.5
field stddev 11492.30144488
field sum 792437955
field sqrsum 21031567471685
field min 1
field max 39810
statistic Basic.rack[2].node[3].app 	"End-to-End Delay"
field count 39810
field mean 1.7654335418289e-005
field stddev 1.0346893606042e-005
field sum 0.7028190930021
field sqrsum 1.6669684180434e-005
field min 8.496e-007
field max 8.5274504e-005
statistic Basic.rack[2].node[3].app 	hops
field count 39810
field mean 5.0784978648581
field stddev 1.0359376069155
field sum 202175
field sqrsum 1069467
field min 3
field max 7
statistic Basic.rack[2].node[4].app 	throughput
field count 40040
field mean 20020.5
field stddev 11558.696725842
field sum 801620820
field sqrsum 21398198962140
field min 1
field max 40040
statistic Basic.rack[2].node[4].app 	"End-to-End Delay"
field count 40040
field mean 1.763779915787e-005
field stddev 1.0376707114217e-005
field sum 0.7062174782811
field sqrsum 1.6767363431039e-005
field min 8.496e-007
field max 8.7791495e-005
statistic Basic.rack[2].node[4].app 	hops
field count 40040
field mean 5.0766983016983
field stddev 1.033752658735
field sum 203271
field sqrsum 1074733
field min 3
field max 7
statistic Basic.rack[2].node[5].app 	throughput
field count 39824
field mean 19912.5
field stddev 11496.342896765
field sum 792995400
field sqrsum 21053763538200
field min 1
field max 39824
statistic Basic.rack[2].node[5].app 	"End-to-End Delay"
field count 39824
field mean 1.7689056855743e-005
field stddev 1.0345320028326e-005
field sum 0.7044490002231
field sqrsum 1.6723120737028e-005
field min 8.496e-007
field max 9.5686203e-005
statistic Basic.rack[2].node[5].app 	hops
field count 39824
field mean 5.0797257934914
field stddev 1.0374533408249
field sum 202295
field sqrsum 1070465
field min 3
field max 7
statistic Basic.rack[2].node[6].app 	throughput
field count 39926
field mean 19963.5
field stddev 11525.787760496
field sum 797062701
field sqrsum 21215949287651
field min 1
field max 39926
statistic Basic.rack[2].node[6].app 	"End-to-End Delay"
field count 39926
field mean 1.7694048691657e-005
field stddev 1.0299003238186e-005
field sum 0.70645258806309
field sqrsum 1.6734829989464e-005
field min 8.496e-007
field max 7.792596e-005
statistic Basic.rack[2].node[6].app 	hops
field count 39926
field mean 5.0784451234784
field stddev 1.0389570160666
field sum 202762
field sqrsum 1072812
field min 3
field max 7
statistic Basic.rack[2].node[7].app 	throughput
field count 40325
field mean 20163
field stddev 11640.969139208
field sum 813072975
field sqrsum 21858382835575
field min 1
field max 40325
statistic Basic.rack[2].node[7].app 	"End-to-End Delay"
field count 40325
field mean 1.766629151353e-005
field stddev 1.0351752383109e-005
field sum 0.7123932052831
field sqrsum 1.6906416576715e-005
field min 8.496e-007
field max 8.8622053e-005
statistic Basic.rack[2].node[7].app 	hops
field count 40325
field mean 5.0770489770614
field stddev 1.0387016518816
field sum 204732
field sqrsum 1082940
field min 3
field max 7
statistic Basic.rack[2].node[8].app 	throughput
field count 40212
field mean 20106.5
field stddev 11608.348848997
field sum 808522578
field sqrsum 21675142778550
field min 1
field max 40212
statistic Basic.rack[2].node[8].app 	"End-to-End Delay"
field count 40212
field mean 1.7662874350296e-005
field stddev 1.0342921714052e-005
field sum 0.71025950337411
field sqrsum 1.6846837489763e-005
field min 8.496e-007
field max 9.0802434e-005
statistic Basic.rack[2].node[8].app 	hops
field count 40212
field mean 5.0767432607182
field stddev 1.0352899973262
field sum 204146
field sqrsum 1079496
field min 3
field max 7
statistic Basic.rack[2].node[9].app 	throughput
field count 39907
field mean 19954
field stddev 11520.302932938
field sum 796304278
field sqrsum 21185675316190
field min 1
field max 39907
statistic Basic.rack[2].node[9].app 	"End-to-End Delay"
field count 39907
field mean 1.778496021618e-005
field stddev 1.036697376163e-005
field sum 0.7097444073471
field sqrsum 1.691163927767e-005
field min 8.496e-007
field max 0.000104313397
statistic Basic.rack[2].node[9].app 	hops
field count 39907
field mean 5.0828676673265
field stddev 1.0374261951644
field sum 202842
field sqrsum 1073968
field min 3
field max 7
statistic Basic.rack[2].eps.queue[0] 	dropsum
field count 0
field mean nan
field stddev nan
field sum 0
field sqrsum 0
field min nan
field max nan
statistic Basic.rack[2].eps.queue[1] 	dropsum
field count 0
field mean nan
field stddev nan
field sum 0
field sqrsum 0
field min nan
field max nan
statistic Basic.rack[2].eps.queue[2] 	dropsum
field count 0
field mean nan
field stddev nan
field sum 0
field sqrsum 0
field min nan
field max nan
statistic Basic.rack[2].eps.queue[3] 	dropsum
field count 0
field mean nan
field stddev nan
field sum 0
field sqrsum 0
field min nan
field max nan
statistic Basic.rack[3].node[0].app 	throughput
field count 39975
field mean 19988
field stddev 11539.932842092
field sum 799020300
field sqrsum 21294157335100
field min 1
field max 39975
statistic Basic.rack[3].node[0].app 	"End-to-End Delay"
field count 39975
field mean 1.772900730857e-005
field stddev 1.0375788183932e-005
field sum 0.70871706716011
field sqrsum 1.6868330199412e-005
field min 8.496e-007
field max 7.9515916e-005
statistic Basic.rack[3].node[0].app 	hops
field count 39975
field mean 5.0783739837398
field stddev 1.0392489512491
field sum 203008
field sqrsum 1074124
field min 3
field max 7
statistic Basic.rack[3].node[1].app 	throughput
field count 40048
field mean 20024.5
field stddev 11561.006126919
field sum 801941176
field sqrsum 21411027458024
field min 1
field max 40048
statistic Basic.rack[3].node[1].app 	"End-to-End Delay"
field count 40048
field mean 1.7683345257194e-005
field stddev 1.0349626066828e-005
field sum 0.70818261086011
field sqrsum 1.6812662395614e-005
field min 8.496e-007
field max 0.000104305496
statistic Basic.rack[3].node[1].app 	hops
field count 40048
field mean 5.0837495005993
field stddev 1.0407472783391
field sum 203594
field sqrsum 1078398
field min 3
field max 7
statistic Basic.rack[3].node[2].app 	throughput
field count 40085
field mean 20043
field stddev 11571.6871069
field sum 803423655
field sqrsum 21470425948335
field min 1
field max 40085
statistic Basic.rack[3].node[2].app 	"End-to-End Delay"
field count 40085
field mean 1.7625992953651e-005
field stddev 1.0409715698825e-005
field sum 0.7065379275471
field sqrsum 1.6797022192845e-005
field min 8.496e-007
field max 9.3552651e-005
statistic Basic.rack[3].node[2].app 	hops
field count 40085
field mean 5.0724211051516
field stddev 1.0366591761875
field sum 203328
field sqrsum 1074442
field min 3
field max 7
statistic Basic.rack[3].node[3].app 	throughput
field count 40264
field mean 20132.5
field stddev 11623.359955997
field sum 810614980
field sqrsum 21759337908140
field min 1
field max 40264
statistic Basic.rack[3].node[3].app 	"End-to-End Delay"
field count 40264
field mean 1.7615077357443e-005
field stddev 1.0295985007756e-005
field sum 0.7092534747201
field sqrsum 1.6761727036242e-005
field min 8.496e-007
field max 0.000107886602
statistic Basic.rack[3].node[3].app 	hops
field count 40264
field mean 5.0757252135903
field stddev 1.0303266487375
field sum 204369
field sqrsum 1080063
field min 3
field max 7
statistic Basic.rack[3].node[4].app 	throughput
field count 40253
field mean 20127
field stddev 11620.184529516
field sum 810172131
field sqrsum 21741509250139
field min 1
field max 40253
statistic Basic.rack[3].node[4].app 	"End-to-End Delay"
field count 40253
field mean 1.775406515296e-005
field stddev 1.0383053168099e-005
field sum 0.71465438460211
field sqrsum 1.7027499793597e-005
field min 8.496e-007
field max 8.8617823e-005
statistic Basic.rack[3].node[4].app 	hops
field count 40253
field mean 5.0847638685315
field stddev 1.0344698336072
field sum 204677
field sqrsum 1083809
field min 3
field max 7
statistic Basic.rack[3].node[5].app 	throughput
field count 39701
field mean 19851
field stddev 11460.835855207
field sum 788104551
field sqrsum 20859288554351
field min 1
field max 39701
statistic Basic.rack[3].node[5].app 	"End-to-End Delay"
field count 39701
field mean 1.7739251276369e-005
field stddev 1.0428603561514e-005
field sum 0.70426601492311
field sqrsum 1.6810755962184e-005
field min 8.496e-007
field max 9.2054641e-005
statistic Basic.rack[3].node[5].app 	hops
field count 39701
field mean 5.0807032568449
field stddev 1.0402410441098
field sum 201709
field sqrsum 1067783
field min 3
field max 7
statistic Basic.rack[3].node[6].app 	throughput
field count 40151
field mean 20076
field stddev 11590.739665785
field sum 806071476
field sqrsum 21576652579076
field min 1
field max 40151
statistic Basic.rack[3].node[6].app 	"End-to-End Delay"
field count 40151
field mean 1.7668060014274e-005
field stddev 1.0336828589006e-005
field sum 0.70939027763311
field sqrsum 1.6823578513696e-005
field min 8.496e-007
field max 8.940922e-005
statistic Basic.rack[3].node[6].app 	hops
field count 40151
field mean 5.0844810839082
field stddev 1.0347563969749
field sum 204147
field sqrsum 1080971
field min 3
field max 7
statistic Basic.rack[3].node[7].app 	throughput
field count 39913
field mean 19957
field stddev 11522.034983746
field sum 796543741
field sqrsum 21195232404269
field min 1
field max 39913
statistic Basic.rack[3].node[7].app 	"End-to-End Delay"
field count 39913
field mean 1.7779955759304e-005
field stddev 1.0375568127438e-005
field sum 0.70965137422109
field sqrsum 1.6914193184435e-005
field min 8.496e-007
field max 0.000112414895
statistic Basic.rack[3].node[7].app 	hops
field count 39913
field mean 5.0779194748578
field stddev 1.0434496118324
field sum 202675
field sqrsum 1072623
field min 3
field max 7
statistic Basic.rack[3].node[8].app 	throughput
field count 39977
field mean 19989
field stddev 11540.510192362
field sum 799100253
field sqrsum 21297353576205
field min 1
field max 39977
statistic Basic.rack[3].node[8].app 	"End-to-End Delay"
field count 39977
field mean 1.777344949141e-005
field stddev 1.0428604223722e-005
field sum 0.7105291903181
field sqrsum 1.6976175979627e-005
field min 8.496e-007
field max 8.3175263e-005
statistic Basic.rack[3].node[8].app 	hops
field count 39977
field mean 5.0820221627436
field stddev 1.0357822841569
field sum 203164
field sqrsum 1075372
field min 3
field max 7
statistic Basic.rack[3].node[9].app 	throughput
field count 40377
field mean 20189
field stddev 11655.980246208
field sum 815171253
field sqrsum 21943051512005
field min 1
field max 40377
statistic Basic.rack[3].node[9].app 	"End-to-End Delay"
field count 40377
field mean 1.7640383855688e-005
field stddev 1.0357599784449e-005
field sum 0.7122657789411
field sqrsum 1.6896173911943e-005
field min 8.496e-007
field max 9.8898417e-005
statistic Basic.rack[3].node[9].app 	hops
field count 40377
field mean 5.0752903880922
field stddev 1.0410762873326
field sum 204925
field sqrsum 1083815
field min 3
field max 7
statistic Basic.rack[3].eps.queue[0] 	dropsum
field count 0
field mean nan
field stddev nan
field sum 0
field sqrsum 0
field min nan
field max nan
statistic Basic.rack[3].eps.queue[1] 	dropsum
field count 0
field mean nan
field stddev nan
field sum 0
field sqrsum 0
field min nan
field max nan
statistic Basic.rack[3].eps.queue[2] 	dropsum
field count 0
field mean nan
field stddev nan
field sum 0
field sqrsum 0
field min nan
field max nan
statistic Basic.rack[3].eps.queue[3] 	dropsum
field count 0
field mean nan
field stddev nan
field sum 0
field sqrsum 0
field min nan
field max nan
statistic Basic.rack[4].node[0].app 	throughput
field count 39880
field mean 19940.5
field stddev 11512.508704304
field sum 795227140
field sqrsum 21142703971180
field min 1
field max 39880
statistic Basic.rack[4].node[0].app 	"End-to-End Delay"
field count 39880
field mean 1.4043302349e-005
field stddev 1.0782846064467e-005
field sum 0.56004689767811
field sqrsum 1.2501630041634e-005
field min 8.496e-007
field max 9.3954552e-005
statistic Basic.rack[4].node[0].app 	hops
field count 39880
field mean 5.3391925777332
field stddev 1.0303542986355
field sum 212927
field sqrsum 1179195
field min 4
field max 7
statistic Basic.rack[4].node[1].app 	throughput
field count 40361
field mean 20181
field stddev 11651.361444055
field sum 814525341
field sqrsum 21916976367181
field min 1
field max 40361
statistic Basic.rack[4].node[1].app 	"End-to-End Delay"
field count 40361
field mean 1.4036196440205e-005
field stddev 1.0790384174813e-005
field sum 0.56651492452311
field sqrsum 1.2650926053147e-005
field min 8.496e-007
field max 7.0819833e-005
statistic Basic.rack[4].node[1].app 	hops
field count 40361
field mean 5.3372810386264
field stddev 1.0294666657962
field sum 215418
field sqrsum 1192520
field min 4
field max 7
statistic Basic.rack[4].node[2].app 	throughput
field count 39773
field mean 19887
field stddev 11481.6204649
field sum 790965651
field sqrsum 20972981546699
field min 1
field max 39773
statistic Basic.rack[4].node[2].app 	"End-to-End Delay"
field count 39773
field mean 1.4005105467983e-005
field stddev 1.084464381264e-005
field sum 0.55702505977811
field sqrsum 1.2478632451155e-005
field min 8.496e-007
field max 8.0294095e-005
statistic Basic.rack[4].node[2].app 	hops
field count 39773
field mean 5.3320594373067
field stddev 1.029284219012
field sum 212072
field sqrsum 1172916
field min 4
field max 7
statistic Basic.rack[4].node[3].app 	throughput
field count 40212
field mean 20106.5
field stddev 11608.348848997
field sum 808522578
field sqrsum 21675142778550
field min 1
field max 40212
statistic Basic.rack[4].node[3].app 	"End-to-End Delay"
field count 40212
field mean 1.3964270493935e-005
field stddev 1.080589861228e-005
field sum 0.56153124510211
field sqrsum 1.2536709921014e-005
field min 8.496e-007
field max 8.0176011e-005
statistic Basic.rack[4].node[3].app 	hops
field count 40212
field mean 5.3336317517159
field stddev 1.0289388649762
field sum 214476
field sqrsum 1186508
field min 4
field max 7
statistic Basic.rack[4].node[4].app 	throughput
field count 40116
field mean 20058.5
field stddev 11580.636036073
field sum 804666786
field sqrsum 21520276747046
field min 1
field max 40116
statistic Basic.rack[4].node[4].app 	"End-to-End Delay"
field count 40116
field mean 1.4006911465727e-005
field stddev 1.0809004679823e-005
field sum 0.56190126035912
field sqrsum 1.2557320470017e-005
field min 8.496e-007
field max 7.2328133e-005
statistic Basic.rack[4].node[4].app 	hops
field count 40116
field mean 5.3287466347592
field stddev 1.0262719845316
field sum 213768
field sqrsum 1181366
field min 4
field max 7
statistic Basic.rack[4].node[5].app 	throughput
field count 39721
field mean 19861
field stddev 11466.609357899
field sum 788898781
field sqrsum 20890828619661
field min 1
field max 39721
statistic Basic.rack[4].node[5].app 	"End-to-End Delay"
field count 39721
field mean 1.3945833830999e-005
field stddev 1.081486037084e-005
field sum 0.5539424656011
field sqrsum 1.2370888633482e-005
field min 8.496e-007
field max 7.3421125e-005
statistic Basic.rack[4].node[5].app 	hops
field count 39721
field mean 5.3317640542786
field stddev 1.02837405877
field sum 211783
field sqrsum 1171183
field min 4
field max 7
statistic Basic.rack[4].node[6].app 	throughput
field count 39900
field mean 19950.5
field stddev 11518.282206996
field sum 796024950
field sqrsum 21174529011650
field min 1
field max 39900
statistic Basic.rack[4].node[6].app 	"End-to-End Delay"
field count 39900
field mean 1.3983130244689e-005
field stddev 1.0856178780412e-005
field sum 0.5579268967631
field sqrsum 1.2503925654555e-005
field min 8.496e-007
field max 0.000101248436
statistic Basic.rack[4].node[6].app 	hops
field count 39900
field mean 5.325037593985
field stddev 1.0242502794207
field sum 212469
field sqrsum 1173263
field min 4
field max 7
statistic Basic.rack[4].node[7].app 	throughput
field count 39978
field mean 19989.5
field stddev 11540.798867496
field sum 799140231
field sqrsum 21298951816689
field min 1
field max 39978
statistic Basic.rack[4].node[7].app 	"End-to-End Delay"
field count 39978
field mean 1.3984745294064e-005
field stddev 1.0807043334985e-005
field sum 0.55908214736611
field sqrsum 1.2487622634874e-005
field min 8.496e-007
field max 7.1681163e-005
statistic Basic.rack[4].node[7].app 	hops
field count 39978
field mean 5.3297563660013
field stddev 1.0241819619445
field sum 213073
field sqrsum 1177561
field min 4
field max 7
statistic Basic.rack[4].node[8].app 	throughput
field count 40216
field mean 20108.5
field stddev 11609.503549535
field sum 808683436
field sqrsum 21681611602596
field min 1
field max 40216
statistic Basic.rack[4].node[8].app 	"End-to-End Delay"
field count 40216
field mean 1.4073643976231e-005
field stddev 1.0841393166686e-005
field sum 0.56598566614811
field sqrsum 1.2692183191051e-005
field min 8.496e-007
field max 7.4588652e-005
statistic Basic.rack[4].node[8].app 	hops
field count 40216
field mean 5.3417296598369
field stddev 1.0271535272977
field sum 214823
field sqrsum 1189955
field min 4
field max 7
statistic Basic.rack[4].node[9].app 	throughput
field count 39953
field mean 19977
field stddev 11533.581989131
field sum 798141081
field sqrsum 21259019786489
field min 1
field max 39953
statistic Basic.rack[4].node[9].app 	"End-to-End Delay"
field count 39953
field mean 1.3962896108005e-005
field stddev 1.0727476442794e-005
field sum 0.55785958820311
field sqrsum 1.2386961726122e-005
field min 8.496e-007
field max 7.8214516e-005
statistic Basic.rack[4].node[9].app 	hops
field count 39953
field mean 5.333616999975
field stddev 1.0291630031087
field sum 213094
field sqrsum 1178878
field min 4
field max 7
statistic Basic.rack[4].eps.queue[0] 	dropsum
field count 0
field mean nan
field stddev nan
field sum 0
field sqrsum 0
field min nan
field max nan
statistic Basic.rack[4].eps.queue[1] 	dropsum
field count 0
field mean nan
field stddev nan
field sum 0
field sqrsum 0
field min nan
field max nan
statistic Basic.rack[4].eps.queue[2] 	dropsum
field count 0
field mean nan
field stddev nan
field sum 0
field sqrsum 0
field min nan
field max nan
statistic Basic.rack[4].eps.queue[3] 	dropsum
field count 0
field mean nan
field stddev nan
field sum 0
field sqrsum 0
field min nan
field max nan
statistic Basic.rack[5].node[0].app 	throughput
field count 39624
field mean 19812.5
field stddev 11438.607869842
field sum 785050500
field sqrsum 20738155691500
field min 1
field max 39624
statistic Basic.rack[5].node[0].app 	"End-to-End Delay"
field count 39624
field mean 1.4018155638378e-005
field stddev 1.0817672832068e-005
field sum 0.55545539901511
field sqrsum 1.2423224742484e-005
field min 8.496e-007
field max 8.3705697e-005
statistic Basic.rack[5].node[0].app 	hops
field count 39624
field mean 5.3358065818696
field stddev 1.0285989203183
field sum 211426
field sqrsum 1170050
field min 4
field max 7
statistic Basic.rack[5].node[1].app 	throughput
field count 40150
field mean 20075.5
field stddev 11590.45099065
field sum 806031325
field sqrsum 21575040476275
field min 1
field max 40150
statistic Basic.rack[5].node[1].app 	"End-to-End Delay"
field count 40150
field mean 1.4002093883539e-005
field stddev 1.0795287249981e-005
field sum 0.56218406942411
field sqrsum 1.2550647388085e-005
field min 8.496e-007
field max 7.8612958e-005
statistic Basic.rack[5].node[1].app 	hops
field count 40150
field mean 5.3416438356164
field stddev 1.0268830589841
field sum 214467
field sqrsum 1187943
field min 4
field max 7
statistic Basic.rack[5].node[2].app 	throughput
field count 39969
field mean 19985
field stddev 11538.200791285
field sum 798780465
field sqrsum 21284570530545
field min 1
field max 39969
statistic Basic.rack[5].node[2].app 	"End-to-End Delay"
field count 39969
field mean 1.4002142067305e-005
field stddev 1.0810723611234e-005
field sum 0.55965161628811
field sqrsum 1.2507451343563e-005
field min 8.496e-007
field max 8.2836619e-005
statistic Basic.rack[5].node[2].app 	hops
field count 39969
field mean 5.3335835272336
field stddev 1.026511691013
field sum 213178
field sqrsum 1179118
field min 4
field max 7
statistic Basic.rack[5].node[3].app 	throughput
field count 40351
field mean 20176
field stddev 11648.474692708
field sum 814121776
field sqrsum 21900689896176
field min 1
field max 40351
statistic Basic.rack[5].node[3].app 	"End-to-End Delay"
field count 40351
field mean 1.3939801675475e-005
field stddev 1.0744117781052e-005
field sum 0.56248493740711
field sqrsum 1.2498773772035e-005
field min 8.496e-007
field max 7.9485952e-005
statistic Basic.rack[5].node[3].app 	hops
field count 40351
field mean 5.3398924438056
field stddev 1.025322207443
field sum 215470
field sqrsum 1193006
field min 4
field max 7
statistic Basic.rack[5].node[4].app 	throughput
field count 40265
field mean 20133
field stddev 11623.648631131
field sum 810655245
field sqrsum 21760959178365
field min 1
field max 40265
statistic Basic.rack[5].node[4].app 	"End-to-End Delay"
field count 40265
field mean 1.3970339566028e-005
field stddev 1.0685982569965e-005
field sum 0.56251572262611
field sqrsum 1.245629081474e-005
field min 8.496e-007
field max 7.1000091e-005
statistic Basic.rack[5].node[4].app 	hops
field count 40265
field mean 5.3373897926239
field stddev 1.0294148846065
field sum 214910
field sqrsum 1189726
field min 4
field max 7
statistic Basic.rack[5].node[5].app 	throughput
field count 39963
field mean 19982
field stddev 11536.468740477
field sum 798540666
field sqrsum 21274986603794
field min 1
field max 39963
statistic Basic.rack[5].node[5].app 	"End-to-End Delay"
field count 39963
field mean 1.390590405125e-005
field stddev 1.0793868340784e-005
field sum 0.55572164360011
field sqrsum 1.2383688316871e-005
field min 8.496e-007
field max 7.7776545e-005
statistic Basic.rack[5].node[5].app 	hops
field count 39963
field mean 5.3364612266346
field stddev 1.0288363026242
field sum 213261
field sqrsum 1180359
field min 4
field max 7
statistic Basic.rack[5].node[6].app 	throughput
field count 40177
field mean 20089
field stddev 11598.245219285
field sum 807115753
field sqrsum 21618595444105
field min 1
field max 40177
statistic Basic.rack[5].node[6].app 	"End-to-End Delay"
field count 40177
field mean 1.3991434814623e-005
field stddev 1.07803779092e-005
field sum 0.56213387654711
field sqrsum 1.2534175517831e-005
field min 8.496e-007
field max 6.9822077e-005
statistic Basic.rack[5].node[6].app 	hops
field count 40177
field mean 5.3293924384598
field stddev 1.025108182524
field sum 214119
field sqrsum 1183343
field min 4
field max 7
statistic Basic.rack[5].node[7].app 	throughput
field count 39796
field mean 19898.5
field stddev 11488.259992996
field sum 791880706
field sqrsum 21009387010886
field min 1
field max 39796
statistic Basic.rack[5].node[7].app 	"End-to-End Delay"
field count 39796
field mean 1.3879654456179e-005
field stddev 1.0734930173281e-005
field sum 0.5523547287381
field sqrsum 1.2252417866336e-005
field min 8.496e-007
field max 9.813664e-005
statistic Basic.rack[5].node[7].app 	hops
field count 39796
field mean 5.3280229168761
field stddev 1.0250780429668
field sum 212034
field sqrsum 1171538
field min 4
field max 7
statistic Basic.rack[5].node[8].app 	throughput
field count 39653
field mean 19827
field stddev 11446.979448745
field sum 786200031
field sqrsum 20783721952839
field min 1
field max 39653
statistic Basic.rack[5].node[8].app 	"End-to-End Delay"
field count 39653
field mean 1.400557910166e-005
field stddev 1.0754486583861e-005
field sum 0.55536322811811
field sqrsum 1.2364293563233e-005
field min 8.496e-007
field max 7.8910485e-005
statistic Basic.rack[5].node[8].app 	hops
field count 39653
field mean 5.3288780167957
field stddev 1.0256483555058
field sum 211306
field sqrsum 1167736
field min 4
field max 7
statistic Basic.rack[5].node[9].app 	throughput
field count 40008
field mean 20004.5
field stddev 11549.459121535
field sum 800340036
field sqrsum 21346936220204
field min 1
field max 40008
statistic Basic.rack[5].node[9].app 	"End-to-End Delay"
field count 40008
field mean 1.4025159404722e-005
field stddev 1.0791181375227e-005
field sum 0.5611185774641
field sqrsum 1.2528576459975e-005
field min 8.496e-007
field max 7.6970699e-005
statistic Basic.rack[5].node[9].app 	hops
field count 40008
field mean 5.3355828834233
field stddev 1.028774216877
field sum 213466
field sqrsum 1181308
field min 4
field max 7
statistic Basic.rack[5].eps.queue[0] 	dropsum
field count 0
field mean nan
field stddev nan
field sum 0
field sqrsum 0
field min nan
field max nan
statistic Basic.rack[5].eps.queue[1] 	dropsum
field count 0
field mean nan
field stddev nan
field sum 0
field sqrsum 0
field min nan
field max nan
statistic Basic.rack[5].eps.queue[2] 	dropsum
field count 0
field mean nan
field stddev nan
field sum 0
field sqrsum 0
field min nan
field max nan
statistic Basic.rack[5].eps.queue[3] 	dropsum
field count 0
field mean nan
field stddev nan
field sum 0
field sqrsum 0
field min nan
field max nan
statistic Basic.rack[6].node[0].app 	throughput
field count 39761
field mean 19881
field stddev 11478.156363284
field sum 790488441
field sqrsum 20954004097881
field min 1
field max 39761
statistic Basic.rack[6].node[0].app 	"End-to-End Delay"
field count 39761
field mean 1.7639279459222e-005
field stddev 1.0357984011491e-005
field sum 0.70135539057811
field sqrsum 1.6637167966063e-005
field min 8.496e-007
field max 0.0001137597
statistic Basic.rack[6].node[0].app 	hops
field count 39761
field mean 5.0842282638767
field stddev 1.0436995935885
field sum 202154
field sqrsum 1071108
field min 3
field max 7
statistic Basic.rack[6].node[1].app 	throughput
field count 40058
field mean 20029.5
field stddev 11563.892878266
field sum 802341711
field sqrsum 21427070286729
field min 1
field max 40058
statistic Basic.rack[6].node[1].app 	"End-to-End Delay"
field count 40058
field mean 1.7760458680641e-005
field stddev 1.033584915426e-005
field sum 0.7114484538291
field sqrsum 1.6914931274554e-005
field min 8.496e-007
field max 9.2650852e-005
statistic Basic.rack[6].node[1].app 	hops
field count 40058
field mean 5.0842029057866
field stddev 1.0395117876634
field sum 203663
field sqrsum 1078749
field min 3
field max 7
statistic Basic.rack[6].node[2].app 	throughput
field count 40227
field mean 20114
field stddev 11612.678976016
field sum 809125878
field sqrsum 21699407504830
field min 1
field max 40227
statistic Basic.rack[6].node[2].app 	"End-to-End Delay"
field count 40227
field mean 1.7691455402394e-005
field stddev 1.0332970611357e-005
field sum 0.7116741764721
field sqrsum 1.6885493303952e-005
field min 8.496e-007
field max 9.2294187e-005
statistic Basic.rack[6].node[2].app 	hops
field count 40227
field mean 5.0847192184354
field stddev 1.0351222495365
field sum 204543
field sqrsum 1083145
field min 3
field max 7
statistic Basic.rack[6].node[3].app 	throughput
field count 40083
field mean 20042
field stddev 11571.109756631
field sum 803343486
field sqrsum 21467212414054
field min 1
field max 40083
statistic Basic.rack[6].node[3].app 	"End-to-End Delay"
field count 40083
field mean 1.7622714650852e-005
field stddev 1.0329157242635e-005
field sum 0.70637127135011
field sqrsum 1.6724587628412e-005
field min 8.496e-007
field max 0.000112949007
statistic Basic.rack[6].node[3].app 	hops
field count 40083
field mean 5.0820547364219
field stddev 1.0357503814384
field sum 203704
field sqrsum 1078234
field min 3
field max 7
statistic Basic.rack[6].node[4].app 	throughput
field count 39990
field mean 19995.5
field stddev 11544.262969112
field sum 799620045
field sqrsum 21318136939715
field min 1
field max 39990
statistic Basic.rack[6].node[4].app 	"End-to-End Delay"
field count 39990
field mean 1.7739066012306e-005
field stddev 1.0367428852846e-005
field sum 0.7093852498321
field sqrsum 1.6881992696289e-005
field min 8.496e-007
field max 0.000100809105
statistic Basic.rack[6].node[4].app 	hops
field count 39990
field mean 5.0837209302326
field stddev 1.0357545919389
field sum 203298
field sqrsum 1076410
field min 3
field max 7
statistic Basic.rack[6].node[5].app 	throughput
field count 39899
field mean 19950
field stddev 11517.993531861
field sum 795985050
field sqrsum 21172937001650
field min 1
field max 39899
statistic Basic.rack[6].node[5].app 	"End-to-End Delay"
field count 39899
field mean 1.7701804057849e-005
field stddev 1.0412932463276e-005
field sum 0.7062842801041
field sqrsum 1.6828612660358e-005
field min 8.496e-007
field max 9.7735118e-005
statistic Basic.rack[6].node[5].app 	hops
field count 39899
field mean 5.0826837765358
field stddev 1.0400307199652
field sum 202794
field sqrsum 1073894
field min 3
field max 7
statistic Basic.rack[6].node[6].app 	throughput
field count 39977
field mean 19989
field stddev 11540.510192362
field sum 799100253
field sqrsum 21297353576205
field min 1
field max 39977
statistic Basic.rack[6].node[6].app 	"End-to-End Delay"
field count 39977
field mean 1.7711849102236e-005
field stddev 1.0398377148756e-005
field sum 0.7080665915601
field sqrsum 1.6863623487223e-005
field min 8.496e-007
field max 0.000104580544
statistic Basic.rack[6].node[6].app 	hops
field count 39977
field mean 5.0781699477199
field stddev 1.0420746252304
field sum 203010
field sqrsum 1074330
field min 3
field max 7
statistic Basic.rack[6].node[7].app 	throughput
field count 39471
field mean 19736
field stddev 11394.440574245
field sum 778999656
field sqrsum 20498856614536
field min 1
field max 39471
statistic Basic.rack[6].node[7].app 	"End-to-End Delay"
field count 39471
field mean 1.7593251586737e-005
field stddev 1.0250762691709e-005
field sum 0.6944232333801
field sqrsum 1.6364596671047e-005
field min 8.496e-007
field max 8.2674813e-005
statistic Basic.rack[6].node[7].app 	hops
field count 39471
field mean 5.0693673836488
field stddev 1.035988738069
field sum 200093
field sqrsum 1056707
field min 3
field max 7
statistic Basic.rack[6].node[8].app 	throughput
field count 39948
field mean 19974.5
field stddev 11532.138613458
field sum 797941326
field sqrsum 21251039374474
field min 1
field max 39948
statistic Basic.rack[6].node[8].app 	"End-to-End Delay"
field count 39948
field mean 1.7602707587591e-005
field stddev 1.0237568565975e-005
field sum 0.7031929627091
field sqrsum 1.6564857692004e-005
field min 8.496e-007
field max 9.3394448e-005
statistic Basic.rack[6].node[8].app 	hops
field count 39948
field mean 5.0717432662461
field stddev 1.0378037717022
field sum 202606
field sqrsum 1070590
field min 3
field max 7
statistic Basic.rack[6].node[9].app 	throughput
field count 40111
field mean 20056
field stddev 11579.1926604
field sum 804466216
field sqrsum 21512231082056
field min 1
field max 40111
statistic Basic.rack[6].node[9].app 	"End-to-End Delay"
field count 40111
field mean 1.7788577610533e-005
field stddev 1.0382114056323e-005
field sum 0.7135176365361
field sqrsum 1.7015852257298e-005
field min 8.496e-007
field max 8.7031007e-005
statistic Basic.rack[6].node[9].app 	hops
field count 40111
field mean 5.0885293311062
field stddev 1.041887997571
field sum 204106
field sqrsum 1082140
field min 3
field max 7
statistic Basic.rack[6].eps.queue[0] 	dropsum
field count 0
field mean nan
field stddev nan
field sum 0
field sqrsum 0
field min nan
field max nan
statistic Basic.rack[6].eps.queue[1] 	dropsum
field count 0
field mean nan
field stddev nan
field sum 0
field sqrsum 0
field min nan
field max nan
statistic Basic.rack[6].eps.queue[2] 	dropsum
field count 0
field mean nan
field stddev nan
field sum 0
field sqrsum 0
field min nan
field max nan
statistic Basic.rack[6].eps.queue[3] 	dropsum
field count 0
field mean nan
field stddev nan
field sum 0
field sqrsum 0
field min nan
field max nan
statistic Basic.rack[7].node[0].app 	throughput
field count 39932
field mean 19966.5
field stddev 11527.519811304
field sum 797302278
field sqrsum 21225515477490
field min 1
field max 39932
statistic Basic.rack[7].node[0].app 	"End-to-End Delay"
field count 39932
field mean 1.7607025710886e-005
field stddev 1.0290702034689e-005
field sum 0.7030837506871
field sqrsum 1.6607848610087e-005
field min 8.496e-007
field max 0.00011540723
statistic Basic.rack[7].node[0].app 	hops
field count 39932
field mean 5.0815386156466
field stddev 1.0369511045776
field sum 202916
field sqrsum 1074062
field min 3
field max 7
statistic Basic.rack[7].node[1].app 	throughput
field count 40081
field mean 20041
field stddev 11570.532406362
field sum 803263321
field sqrsum 21463999200441
field min 1
field max 40081
statistic Basic.rack[7].node[1].app 	"End-to-End Delay"
field count 40081
field mean 1.7674836978895e-005
field stddev 1.0392031811969e-005
field sum 0.7084251409511
field sqrsum 1.6849711431315e-005
field min 8.496e-007
field max 8.963351e-005
statistic Basic.rack[7].node[1].app 	hops
field count 40081
field mean 5.0883460991492
field stddev 1.0328217271788
field sum 203946
field sqrsum 1080502
field min 3
field max 7
statistic Basic.rack[7].node[2].app 	throughput
field count 40034
field mean 20017.5
field stddev 11556.964675035
field sum 801380595
field sqrsum 21388580953685
field min 1
field max 40034
statistic Basic.rack[7].node[2].app 	"End-to-End Delay"
field count 40034
field mean 1.774204372039e-005
field stddev 1.0349886908985e-005
field sum 0.7102849783021
field sqrsum 1.6890248465371e-005
field min 8.496e-007
field max 8.186899e-005
statistic Basic.rack[7].node[2].app 	hops
field count 40034
field mean 5.0753359644302
field stddev 1.0445427401092
field sum 203186
field sqrsum 1074916
field min 3
field max 7
statistic Basic.rack[7].node[3].app 	throughput
field count 40095
field mean 20048
field stddev 11574.573858246
field sum 803824560
field sqrsum 21486498430320
field min 1
field max 40095
statistic Basic.rack[7].node[3].app 	"End-to-End Delay"
field count 40095
field mean 1.7797198467243e-005
field stddev 1.039187195627e-005
field sum 0.71357867254411
field sqrsum 1.7029492521739e-005
field min 8.496e-007
field max 9.723198e-005
statistic Basic.rack[7].node[3].app 	hops
field count 40095
field mean 5.0909340316748
field stddev 1.0434809818574
field sum 204121
field sqrsum 1082823
field min 3
field max 7
statistic Basic.rack[7].node[4].app 	throughput
field count 40016
field mean 20008.5
field stddev 11551.768522612
field sum 800660136
field sqrsum 21359744221496
field min 1
field max 40016
statistic Basic.rack[7].node[4].app 	"End-to-End Delay"
field count 40016
field mean 1.7699927812053e-005
field stddev 1.0372601496223e-005
field sum 0.70828031132711
field sqrsum 1.6841758716093e-005
field min 8.496e-007
field max 8.4043593e-005
statistic Basic.rack[7].node[4].app 	hops
field count 40016
field mean 5.0798180727709
field stddev 1.0370261535627
field sum 203274
field sqrsum 1075628
field min 3
field max 7
statistic Basic.rack[7].node[5].app 	throughput
field count 39945
field mean 19973
field stddev 11531.272588054
field sum 797821485
field sqrsum 21246252086045
field min 1
field max 39945
statistic Basic.rack[7].node[5].app 	"End-to-End Delay"
field count 39945
field mean 1.7613316344726e-005
field stddev 1.0307183478759e-005
field sum 0.7035639213901
field sqrsum 1.6635665837021e-005
field min 8.496e-007
field max 8.4600856e-005
statistic Basic.rack[7].node[5].app 	hops
field count 39945
field mean 5.0807860808612
field stddev 1.0369730088851
field sum 202952
field sqrsum 1074108
field min 3
field max 7
statistic Basic.rack[7].node[6].app 	throughput
field count 39906
field mean 19953.5
field stddev 11520.014257804
field sum 796264371
field sqrsum 21184082747541
field min 1
field max 39906
statistic Basic.rack[7].node[6].app 	"End-to-End Delay"
field count 39906
field mean 1.7664714180602e-005
field stddev 1.0309358628426e-005
field sum 0.7049280840911
field sqrsum 1.6693571263372e-005
field min 8.496e-007
field max 0.000103573068
statistic Basic.rack[7].node[6].app 	hops
field count 39906
field mean 5.075878314038
field stddev 1.0360043973201
field sum 202558
field sqrsum 1070990
field min 3
field max 7
statistic Basic.rack[7].node[7].app 	throughput
field count 39905
field mean 19953
field stddev 11519.725582669
field sum 796224465
field sqrsum 21182490258705
field min 1
field max 39905
statistic Basic.rack[7].node[7].app 	"End-to-End Delay"
field count 39905
field mean 1.7764984551162e-005
field stddev 1.0385221467352e-005
field sum 0.7089117085141
field sqrsum 1.6897564675736e-005
field min 8.496e-007
field max 8.0816799e-005
statistic Basic.rack[7].node[7].app 	hops
field count 39905
field mean 5.0810424758802
field stddev 1.0362552270433
field sum 202759
field sqrsum 1073077
field min 3
field max 7
statistic Basic.rack[7].node[8].app 	throughput
field count 40178
field mean 20089.5
field stddev 11598.53389442
field sum 807155931
field sqrsum 21620209715789
field min 1
field max 40178
statistic Basic.rack[7].node[8].app 	"End-to-End Delay"
field count 40178
field mean 1.7624891858233e-005
field stddev 1.0375832244103e-005
field sum 0.70813290508009
field sqrsum 1.6806137110976e-005
field min 8.496e-007
field max 9.7734722e-005
statistic Basic.rack[7].node[8].app 	hops
field count 40178
field mean 5.0773308775947
field stddev 1.035554476227
field sum 203997
field sqrsum 1078845
field min 3
field max 7
statistic Basic.rack[7].node[9].app 	throughput
field count 40223
field mean 20112
field stddev 11611.524275477
field sum 808964976
field sqrsum 21692935141424
field min 1
field max 40223
statistic Basic.rack[7].node[9].app 	"End-to-End Delay"
field count 40223
field mean 1.7672383688713e-005
field stddev 1.0380281507242e-005
field sum 0.71083628911111
field sqrsum 1.6896101962022e-005
field min 8.496e-007
field max 0.000119761851
statistic Basic.rack[7].node[9].app 	hops
field count 40223
field mean 5.0806752355617
field stddev 1.036373068832
field sum 204360
field sqrsum 1081488
field min 3
field max 7
statistic Basic.rack[7].eps.queue[0] 	dropsum
field count 0
field mean nan
field stddev nan
field sum 0
field sqrsum 0
field min nan
field max nan
statistic Basic.rack[7].eps.queue[1] 	dropsum
field count 0
field mean nan
field stddev nan
field sum 0
field sqrsum 0
field min nan
field max nan
statistic Basic.rack[7].eps.queue[2] 	dropsum
field count 0
field mean nan
field stddev nan
field sum 0
field sqrsum 0
field min nan
field max nan
statistic Basic.rack[7].eps.queue[3] 	dropsum
field count 0
field mean nan
field stddev nan
field sum 0
field sqrsum 0
field min nan
field max nan
statistic Basic.rack[8].node[0].app 	throughput
field count 40015
field mean 20008
field stddev 11551.479847477
field sum 800620120
field sqrsum 21358142941240
field min 1
field max 40015
statistic Basic.rack[8].node[0].app 	"End-to-End Delay"
field count 40015
field mean 1.3871482644011e-005
field stddev 1.0730293556567e-005
field sum 0.5550673780001
field sqrsum 1.2306787441386e-005
field min 8.496e-007
field max 7.8329063e-005
statistic Basic.rack[8].node[0].app 	hops
field count 40015
field mean 5.3428714232163
field stddev 1.0296475323733
field sum 213795
field sqrsum 1184701
field min 4
field max 7
statistic Basic.rack[8].node[1].app 	throughput
field count 39856
field mean 19928.5
field stddev 11505.580501073
field sum 794270296
field sqrsum 21104556035016
field min 1
field max 39856
statistic Basic.rack[8].node[1].app 	"End-to-End Delay"
field count 39856
field mean 1.403661944927e-005
field stddev 1.0803286059674e-005
field sum 0.55944350477011
field sqrsum 1.2504212073805e-005
field min 8.496e-007
field max 8.4479122e-005
statistic Basic.rack[8].node[1].app 	hops
field count 39856
field mean 5.3401244480128
field stddev 1.0256682248946
field sum 212836
field sqrsum 1178498
field min 4
field max 7
statistic Basic.rack[8].node[2].app 	throughput
field count 40186
field mean 20093.5
field stddev 11600.843295497
field sum 807477391
field sqrsum 21633126782281
field min 1
field max 40186
statistic Basic.rack[8].node[2].app 	"End-to-End Delay"
field count 40186
field mean 1.4069733073685e-005
field stddev 1.0795277687939e-005
field sum 0.56540629329911
field sqrsum 1.2638195973055e-005
field min 8.496e-007
field max 7.90524e-005
statistic Basic.rack[8].node[2].app 	hops
field count 40186
field mean 5.3391230776887
field stddev 1.0253770289233
field sum 214558
field sqrsum 1187802
field min 4
field max 7
statistic Basic.rack[8].node[3].app 	throughput
field count 39864
field mean 19932.5
field stddev 11507.88990215
field sum 794589180
field sqrsum 21117266910740
field min 1
field max 39864
statistic Basic.rack[8].node[3].app 	"End-to-End Delay"
field count 39864
field mean 1.39511701904e-005
field stddev 1.0790432986144e-005
field sum 0.5561494484701
field sqrsum 1.240032198621e-005
field min 8.496e-007
field max 6.9849102e-005
statistic Basic.rack[8].node[3].app 	hops
field count 39864
field mean 5.3328567128236
field stddev 1.0298985258378
field sum 212589
field sqrsum 1175989
field min 4
field max 7
statistic Basic.rack[8].node[4].app 	throughput
field count 39982
field mean 19991.5
field stddev 11541.953568035
field sum 799300153
field sqrsum 21305345578215
field min 1
field max 39982
statistic Basic.rack[8].node[4].app 	"End-to-End Delay"
field count 39982
field mean 1.4059843333403e-005
field stddev 1.0795621503226e-005
field sum 0.56214065615611
field sqrsum 1.2563212939099e-005
field min 8.496e-007
field max 8.4658111e-005
statistic Basic.rack[8].node[4].app 	hops
field count 39982
field mean 5.3414286428893
field stddev 1.0313385370515
field sum 213561
field sqrsum 1183247
field min 4
field max 7
statistic Basic.rack[8].node[5].app 	throughput
field count 40092
field mean 20046.5
field stddev 11573.707832843
field sum 803704278
field sqrsum 21481675843810
field min 1
field max 40092
statistic Basic.rack[8].node[5].app 	"End-to-End Delay"
field count 40092
field mean 1.4026885941612e-005
field stddev 1.0795683849519e-005
field sum 0.56236591117111
field sqrsum 1.2560719842468e-005
field min 8.496e-007
field max 7.2443984e-005
statistic Basic.rack[8].node[5].app 	hops
field count 40092
field mean 5.3447570587648
field stddev 1.0247829227479
field sum 214282
field sqrsum 1187388
field min 4
field max 7
statistic Basic.rack[8].node[6].app 	throughput
field count 39939
field mean 19970
field stddev 11529.540537246
field sum 797581830
field sqrsum 21236679666190
field min 1
field max 39939
statistic Basic.rack[8].node[6].app 	"End-to-End Delay"
field count 39939
field mean 1.4008285735249e-005
field stddev 1.0765905727775e-005
field sum 0.55947692398011
field sqrsum 1.2466315565944e-005
field min 8.496e-007
field max 8.0248537e-005
statistic Basic.rack[8].node[6].app 	hops
field count 39939
field mean 5.3374646335662
field stddev 1.0289958610544
field sum 213173
field sqrsum 1180091
field min 4
field max 7
statistic Basic.rack[8].node[7].app 	throughput
field count 40127
field mean 20064
field stddev 11583.811462554
field sum 805108128
field sqrsum 21537984270880
field min 1
field max 40127
statistic Basic.rack[8].node[7].app 	"End-to-End Delay"
field count 40127
field mean 1.3994452493087e-005
field stddev 1.0762592602542e-005
field sum 0.56155539519011
field sqrsum 1.2506591289697e-005
field min 8.496e-007
field max 7.974504e-005
statistic Basic.rack[8].node[7].app 	hops
field count 40127
field mean 5.3301517681362
field stddev 1.0275348541933
field sum 213883
field sqrsum 1182395
field min 4
field max 7
statistic Basic.rack[8].node[8].app 	throughput
field count 40158
field mean 20079.5
field stddev 11592.760391727
field sum 806352561
field sqrsum 21587939547279
field min 1
field max 40158
statistic Basic.rack[8].node[8].app 	"End-to-End Delay"
field count 40158
field mean 1.4016559762092e-005
field stddev 1.0772452702185e-005
field sum 0.56287700692611
field sqrsum 1.2549647875864e-005
field min 8.496e-007
field max 7.4112933e-005
statistic Basic.rack[8].node[8].app 	hops
field count 40158
field mean 5.3359480053788
field stddev 1.0252280712303
field sum 214281
field sqrsum 1185601
field min 4
field max 7
statistic Basic.rack[8].node[9].app 	throughput
field count 39818
field mean 19909.5
field stddev 11494.610845957
field sum 792756471
field sqrsum 21044249027009
field min 1
field max 39818
statistic Basic.rack[8].node[9].app 	"End-to-End Delay"
field count 39818
field mean 1.3980063862226e-005
field stddev 1.0800177442453e-005
field sum 0.55665818286611
field sqrsum 1.2426524436037e-005
field min 8.496e-007
field max 8.6773511e-005
statistic Basic.rack[8].node[9].app 	hops
field count 39818
field mean 5.3365563313074
field stddev 1.027985830947
field sum 212491
field sqrsum 1176047
field min 4
field max 7
statistic Basic.rack[8].eps.queue[0] 	dropsum
field count 0
field mean nan
field stddev nan
field sum 0
field sqrsum 0
field min nan
field max nan
statistic Basic.rack[8].eps.queue[1] 	dropsum
field count 0
field mean nan
field stddev nan
field sum 0
field sqrsum 0
field min nan
field max nan
statistic Basic.rack[8].eps.queue[2] 	dropsum
field count 0
field mean nan
field stddev nan
field sum 0
field sqrsum 0
field min nan
field max nan
statistic Basic.rack[8].eps.queue[3] 	dropsum
field count 0
field mean nan
field stddev nan
field sum 0
field sqrsum 0
field min nan
field max nan
statistic Basic.rack[9].node[0].app 	throughput
field count 39889
field mean 19945
field stddev 11515.106780515
field sum 795586105
field sqrsum 21157021290265
field min 1
field max 39889
statistic Basic.rack[9].node[0].app 	"End-to-End Delay"
field count 39889
field mean 1.4033863191283e-005
field stddev 1.0790564690625e-005
field sum 0.5597967688371
field sqrsum 1.2500521858415e-005
field min 8.496e-007
field max 7.5656107e-005
statistic Basic.rack[9].node[0].app 	hops
field count 39889
field mean 5.3286620371531
field stddev 1.0250967381796
field sum 212555
field sqrsum 1174549
field min 4
field max 7
statistic Basic.rack[9].node[1].app 	throughput
field count 40016
field mean 20008.5
field stddev 11551.768522612
field sum 800660136
field sqrsum 21359744221496
field min 1
field max 40016
statistic Basic.rack[9].node[1].app 	"End-to-End Delay"
field count 40016
field mean 1.3946243497579e-005
field stddev 1.0795007700968e-005
field sum 0.55807287979911
field sqrsum 1.2446055904501e-005
field min 8.496e-007
field max 7.320481e-005
statistic Basic.rack[9].node[1].app 	hops
field count 40016
field mean 5.3303928428629
field stddev 1.0257813219042
field sum 213301
field sqrsum 1179083
field min 4
field max 7
statistic Basic.rack[9].node[2].app 	throughput
field count 39856
field mean 19928.5
field stddev 11505.580501073
field sum 794270296
field sqrsum 21104556035016
field min 1
field max 39856
statistic Basic.rack[9].node[2].app 	"End-to-End Delay"
field count 39856
field mean 1.3881631067571e-005
field stddev 1.0793321175307e-005
field sum 0.5532662878291
field sqrsum 1.2323177881113e-005
field min 8.496e-007
field max 7.8478801e-005
statistic Basic.rack[9].node[2].app 	hops
field count 39856
field mean 5.3334504215175
field stddev 1.0282967233484
field sum 212570
field sqrsum 1175874
field min 4
field max 7
statistic Basic.rack[9].node[3].app 	throughput
field count 40451
field mean 20226
field stddev 11677.34220617
field sum 818161926
field sqrsum 22063918099726
field min 1
field max 40451
statistic Basic.rack[9].node[3].app 	"End-to-End Delay"
field count 40451
field mean 1.4060315361823e-005
field stddev 1.0842389201235e-005
field sum 0.56875381670111
field sqrsum 1.2752055001316e-005
field min 8.496e-007
field max 8.515379e-005
statistic Basic.rack[9].node[3].app 	hops
field count 40451
field mean 5.3280512224667
field stddev 1.0275652007183
field sum 215525
field sqrsum 1191039
field min 4
field max 7
statistic Basic.rack[9].node[4].app 	throughput
field count 40518
field mean 20259.5
field stddev 11696.683440189
field sum 820874421
field sqrsum 22173733484859
field min 1
field max 40518
statistic Basic.rack[9].node[4].app 	"End-to-End Delay"
field count 40518
field mean 1.4034503824871e-005
field stddev 1.0785217220272e-005
field sum 0.56865002597611
field sqrsum 1.2693695294835e-005
field min 8.496e-007
field max 7.4044454e-005
statistic Basic.rack[9].node[4].app 	hops
field count 40518
field mean 5.3387383385162
field stddev 1.0258862447453
field sum 216315
field sqrsum 1197491
field min 4
field max 7
statistic Basic.rack[9].node[5].app 	throughput
field count 39742
field mean 19871.5
field stddev 11472.671535726
field sum 789733153
field sqrsum 20923979888735
field min 1
field max 39742
statistic Basic.rack[9].node[5].app 	"End-to-End Delay"
field count 39742
field mean 1.4015235933599e-005
field stddev 1.0766822372653e-005
field sum 0.55699350647311
field sqrsum 1.2413349530697e-005
field min 8.496e-007
field max 7.3589705e-005
statistic Basic.rack[9].node[5].app 	hops
field count 39742
field mean 5.3259775552312
field stddev 1.0216198031894
field sum 211665
field sqrsum 1168801
field min 4
field max 7
statistic Basic.rack[9].node[6].app 	throughput
field count 40024
field mean 20012.5
field stddev 11554.077923689
field sum 800980300
field sqrsum 21372557344900
field min 1
field max 40024
statistic Basic.rack[9].node[6].app 	"End-to-End Delay"
field count 40024
field mean 1.388452440491e-005
field stddev 1.0723719450463e-005
field sum 0.5557142047821
field sqrsum 1.2318398750195e-005
field min 8.496e-007
field max 7.3056923e-005
statistic Basic.rack[9].node[6].app 	hops
field count 40024
field mean 5.3315260843494
field stddev 1.0290484045046
field sum 213389
field sqrsum 1180071
field min 4
field max 7
statistic Basic.rack[9].node[7].app 	throughput
field count 39844
field mean 19922.5
field stddev 11502.116399457
field sum 793792090
field sqrsum 21085499286670
field min 1
field max 39844
statistic Basic.rack[9].node[7].app 	"End-to-End Delay"
field count 39844
field mean 1.3961397874112e-005
field stddev 1.0724836840621e-005
field sum 0.5562779368961
field sqrsum 1.2349244142248e-005
field min 8.496e-007
field max 8.2459498e-005
statistic Basic.rack[9].node[7].app 	hops
field count 39844
field mean 5.3357343640197
field stddev 1.0241895429439
field sum 212597
field sqrsum 1176155
field min 4
field max 7
statistic Basic.rack[9].node[8].app 	throughput
field count 40405
field mean 20203
field stddev 11664.063149978
field sum 816302215
field sqrsum 21988732765455
field min 1
field max 40405
statistic Basic.rack[9].node[8].app 	"End-to-End Delay"
field count 40405
field mean 1.3909896875637e-005
field stddev 1.0781901145601e-005
field sum 0.56202938326011
field sqrsum 1.2514711209261e-005
field min 8.496e-007
field max 8.3150332e-005
statistic Basic.rack[9].node[8].app 	hops
field count 40405
field mean 5.3371364930083
field stddev 1.0291216374775
field sum 215647
field sqrsum 1193729
field min 4
field max 7
statistic Basic.rack[9].node[9].app 	throughput
field count 39844
field mean 19922.5
field stddev 11502.116399457
field sum 793792090
field sqrsum 21085499286670
field min 1
field max 39844
statistic Basic.rack[9].node[9].app 	"End-to-End Delay"
field count 39844
field mean 1.3951471226285e-005
field stddev 1.0711080774126e-005
field sum 0.55588241954011
field sqrsum 1.2326455456944e-005
field min 8.496e-007
field max 6.8314838e-005
statistic Basic.rack[9].node[9].app 	hops
field count 39844
field mean 5.3311665495432
field stddev 1.0257980118409
field sum 212415
field sqrsum 1174345
field min 4
field max 7
statistic Basic.rack[9].eps.queue[0] 	dropsum
field count 0
field mean nan
field stddev nan
field sum 0
field sqrsum 0
field min nan
field max nan
statistic Basic.rack[9].eps.queue[1] 	dropsum
field count 0
field mean nan
field stddev nan
field sum 0
field sqrsum 0
field min nan
field max nan
statistic Basic.rack[9].eps.queue[2] 	dropsum
field count 0
field mean nan
field stddev nan
field sum 0
field sqrsum 0
field min nan
field max nan
statistic Basic.rack[9].eps.queue[3] 	dropsum
field count 0
field mean nan
field stddev nan
field sum 0
field sqrsum 0
field min nan
field max nan
statistic Basic.rack[10].node[0].app 	throughput
field count 39790
field mean 19895.5
field stddev 11486.527942188
field sum 791641945
field sqrsum 20999885875015
field min 1
field max 39790
statistic Basic.rack[10].node[0].app 	"End-to-End Delay"
field count 39790
field mean 1.7711866219681e-005
field stddev 1.0363651377336e-005
field sum 0.7047551568811
field sqrsum 1.6756077339204e-005
field min 8.496e-007
field max 9.6784041e-005
statistic Basic.rack[10].node[0].app 	hops
field count 39790
field mean 5.0840160844433
field stddev 1.0399559183393
field sum 202293
field sqrsum 1071493
field min 3
field max 7
statistic Basic.rack[10].node[1].app 	throughput
field count 39896
field mean 19948.5
field stddev 11517.127506458
field sum 795865356
field sqrsum 21168161450436
field min 1
field max 39896
statistic Basic.rack[10].node[1].app 	"End-to-End Delay"
field count 39896
field mean 1.7789448142624e-005
field stddev 1.0355932810288e-005
field sum 0.70972782309811
field sqrsum 1.690421931807e-005
field min 8.496e-007
field max 7.6205626e-005
statistic Basic.rack[10].node[1].app 	hops
field count 39896
field mean 5.0864748345699
field stddev 1.0426866420605
field sum 202930
field sqrsum 1075572
field min 3
field max 7
statistic Basic.rack[10].node[2].app 	throughput
field count 39754
field mean 19877.5
field stddev 11476.135637342
field sum 790210135
field sqrsum 20942939207905
field min 1
field max 39754
statistic Basic.rack[10].node[2].app 	"End-to-End Delay"
field count 39754
field mean 1.7710163151333e-005
field stddev 1.033911136088e-005
field sum 0.7040498259181
field sqrsum 1.6718322618722e-005
field min 8.496e-007
field max 8.8907265e-005
statistic Basic.rack[10].node[2].app 	hops
field count 39754
field mean 5.0799667957941
field stddev 1.0353205062708
field sum 201949
field sqrsum 1068505
field min 3
field max 7
statistic Basic.rack[10].node[3].app 	throughput
field count 40185
field mean 20093
field stddev 11600.554620362
field sum 807437205
field sqrsum 21631511867685
field min 1
field max 40185
statistic Basic.rack[10].node[3].app 	"End-to-End Delay"
field count 40185
field mean 1.7748604280082e-005
field stddev 1.0355598667409e-005
field sum 0.71322766299511
field sqrsum 1.6968064372498e-005
field min 8.496e-007
field max 8.8960436e-005
statistic Basic.rack[10].node[3].app 	hops
field count 40185
field mean 5.094388453403
field stddev 1.0355874586616
field sum 204718
field sqrsum 1086008
field min 3
field max 7
statistic Basic.rack[10].node[4].app 	throughput
field count 39918
field mean 19959.5
field stddev 11523.478359419
field sum 796743321
field sqrsum 21203198839559
field min 1
field max 39918
statistic Basic.rack[10].node[4].app 	"End-to-End Delay"
field count 39918
field mean 1.7687552243552e-005
field stddev 1.0352194376795e-005
field sum 0.7060517104581
field sqrsum 1.6766148713916e-005
field min 8.496e-007
field max 0.000101056865
statistic Basic.rack[10].node[4].app 	hops
field count 39918
field mean 5.078936820482
field stddev 1.0416853420282
field sum 202741
field sqrsum 1073023
field min 3
field max 7
statistic Basic.rack[10].node[5].app 	throughput
field count 40232
field mean 20116.5
field stddev 11614.122351689
field sum 809327028
field sqrsum 21707499769340
field min 1
field max 40232
statistic Basic.rack[10].node[5].app 	"End-to-End Delay"
field count 40232
field mean 1.7722456213614e-005
field stddev 1.0341921757225e-005
field sum 0.71300985838611
field sqrsum 1.6939206505267e-005
field min 8.496e-007
field max 8.3195306e-005
statistic Basic.rack[10].node[5].app 	hops
field count 40232
field mean 5.0855289321933
field stddev 1.0359390995177
field sum 204601
field sqrsum 1083679
field min 3
field max 7
statistic Basic.rack[10].node[6].app 	throughput
field count 39784
field mean 19892.5
field stddev 11484.79589138
field sum 791403220
field sqrsum 20990387604060
field min 1
field max 39784
statistic Basic.rack[10].node[6].app 	"End-to-End Delay"
field count 39784
field mean 1.764956172914e-005
field stddev 1.0418770211735e-005
field sum 0.7021701638321
field sqrsum 1.6711471042231e-005
field min 8.496e-007
field max 9.2799645e-005
statistic Basic.rack[10].node[6].app 	hops
field count 39784
field mean 5.0830987331591
field stddev 1.0355673120798
field sum 202226
field sqrsum 1070598
field min 3
field max 7
statistic Basic.rack[10].node[7].app 	throughput
field count 40192
field mean 20096.5
field stddev 11602.575346304
field sum 807718528
field sqrsum 21642817957760
field min 1
field max 40192
statistic Basic.rack[10].node[7].app 	"End-to-End Delay"
field count 40192
field mean 1.7646191201187e-005
field stddev 1.033668380418e-005
field sum 0.7092357167581
field sqrsum 1.6809598130453e-005
field min 8.496e-007
field max 8.6020311e-005
statistic Basic.rack[10].node[7].app 	hops
field count 40192
field mean 5.0782494028662
field stddev 1.0368410330947
field sum 204105
field sqrsum 1079703
field min 3
field max 7
statistic Basic.rack[10].node[8].app 	throughput
field count 39979
field mean 19990
field stddev 11541.087542631
field sum 799180210
field sqrsum 21300550137130
field min 1
field max 39979
statistic Basic.rack[10].node[8].app 	"End-to-End Delay"
field count 39979
field mean 1.7667031760152e-005
field stddev 1.0371318900533e-005
field sum 0.7063102627391
field sqrsum 1.6778609660169e-005
field min 8.496e-007
field max 9.540313e-005
statistic Basic.rack[10].node[8].app 	hops
field count 39979
field mean 5.0846944645939
field stddev 1.0318751062999
field sum 203281
field sqrsum 1076189
field min 3
field max 7
statistic Basic.rack[10].node[9].app 	throughput
field count 39857
field mean 19929
field stddev 11505.869176207
field sum 794310153
field sqrsum 21106144615465
field min 1
field max 39857
statistic Basic.rack[10].node[9].app 	"End-to-End Delay"
field count 39857
field mean 1.7676638458994e-005
field stddev 1.0378345389688e-005
field sum 0.70453777906011
field sqrsum 1.6746751474618e-005
field min 8.496e-007
field max 9.6419735e-005
statistic Basic.rack[10].node[9].app 	hops
field count 39857
field mean 5.0834734174674
field stddev 1.04177211491
field sum 202612
field sqrsum 1073228
field min 3
field max 7
statistic Basic.rack[10].eps.queue[0] 	dropsum
field count 0
field mean nan
field stddev nan
field sum 0
field sqrsum 0
field min nan
field max nan
statistic Basic.rack[10].eps.queue[1] 	dropsum
field count 0
field mean nan
field stddev nan
field sum 0
field sqrsum 0
field min nan
field max nan
statistic Basic.rack[10].eps.queue[2] 	dropsum
field count 0
field mean nan
field stddev nan
field sum 0
field sqrsum 0
field min nan
field max nan
statistic Basic.rack[10].eps.queue[3] 	dropsum
field count 0
field mean nan
field stddev nan
field sum 0
field sqrsum 0
field min nan
field max nan
statistic Basic.rack[11].node[0].app 	throughput
field count 39983
field mean 19992
field stddev 11542.242243169
field sum 799340136
field sqrsum 21306944218504
field min 1
field max 39983
statistic Basic.rack[11].node[0].app 	"End-to-End Delay"
field count 39983
field mean 1.7632405176378e-005
field stddev 1.0373962776859e-005
field sum 0.70499645616711
field sqrsum 1.6733610167008e-005
field min 8.496e-007
field max 8.8913699e-005
statistic Basic.rack[11].node[0].app 	hops
field count 39983
field mean 5.0767076007303
field stddev 1.0381851797846
field sum 202982
field sqrsum 1073574
field min 3
field max 7
statistic Basic.rack[11].node[1].app 	throughput
field count 40216
field mean 20108.5
field stddev 11609.503549535
field sum 808683436
field sqrsum 21681611602596
field min 1
field max 40216
statistic Basic.rack[11].node[1].app 	"End-to-End Delay"
field count 40216
field mean 1.7677825582358e-005
field stddev 1.029705445683e-005
field sum 0.7109314336201
field sqrsum 1.6831691410083e-005
field min 8.496e-007
field max 0.000109395377
statistic Basic.rack[11].node[1].app 	hops
field count 40216
field mean 5.0766112989855
field stddev 1.0357883017961
field sum 204161
field sqrsum 1079591
field min 3
field max 7
statistic Basic.rack[11].node[2].app 	throughput
field count 40012
field mean 20006.5
field stddev 11550.613822073
field sum 800500078
field sqrsum 21353339580650
field min 1
field max 40012
statistic Basic.rack[11].node[2].app 	"End-to-End Delay"
field count 40012
field mean 1.7711869623915e-005
field stddev 1.0327385098395e-005
field sum 0.7086873273921
field sqrsum 1.6819546069425e-005
field min 8.496e-007
field max 9.4696925e-005
statistic Basic.rack[11].node[2].app 	hops
field count 40012
field mean 5.0813505948216
field stddev 1.0421642941888
field sum 203315
field sqrsum 1076571
field min 3
field max 7
statistic Basic.rack[11].node[3].app 	throughput
field count 39867
field mean 19934
field stddev 11508.755927554
field sum 794708778
field sqrsum 21122034804610
field min 1
field max 39867
statistic Basic.rack[11].node[3].app 	"End-to-End Delay"
field count 39867
field mean 1.7725004285452e-005
field stddev 1.0414918521917e-005
field sum 0.7066427458481
field sqrsum 1.6849531760441e-005
field min 8.496e-007
field max 9.0976305e-005
statistic Basic.rack[11].node[3].app 	hops
field count 39867
field mean 5.0805929716307
field stddev 1.0418915114306
[...]
field max 6.6029824e-005
statistic Basic.rack[13].node[1].app 	hops
field count 40103
field mean 5.3320699199561
field stddev 1.0243753182683
field sum 213832
field sqrsum 1182248
field min 4
field max 7
statistic Basic.rack[13].node[2].app 	throughput
field count 40149
field mean 20075
field stddev 11590.162315516
field sum 805991175
field sqrsum 21573428453775
field min 1
field max 40149
statistic Basic.rack[13].node[2].app 	"End-to-End Delay"
field count 40149
field mean 1.3976324912753e-005
field stddev 1.0799243545468e-005
field sum 0.56113546892211
field sqrsum 1.252481838175e-005
field min 8.496e-007
field max 9.6713359e-005
statistic Basic.rack[13].node[2].app 	hops
field count 40149
field mean 5.3285262397569
field stddev 1.0262900995221
field sum 213935
field sqrsum 1182245
field min 4
field max 7
statistic Basic.rack[13].node[3].app 	throughput
field count 39970
field mean 19985.5
field stddev 11538.489466419
field sum 798820435
field sqrsum 21286168131445
field min 1
field max 39970
statistic Basic.rack[13].node[3].app 	"End-to-End Delay"
field count 39970
field mean 1.4010897386017e-005
field stddev 1.075772653835e-005
field sum 0.56001556851911
field sqrsum 1.2471880286962e-005
field min 8.496e-007
field max 9.105594e-005
statistic Basic.rack[13].node[3].app 	hops
field count 39970
field mean 5.3391043282462
field stddev 1.0254313327439
field sum 213404
field sqrsum 1181414
field min 4
field max 7
statistic Basic.rack[13].node[4].app 	throughput
field count 39735
field mean 19868
field stddev 11470.650809784
field sum 789454980
field sqrsum 20912925571860
field min 1
field max 39735
statistic Basic.rack[13].node[4].app 	"End-to-End Delay"
field count 39735
field mean 1.4010807561271e-005
field stddev 1.0781325630116e-005
field sum 0.55671943844711
field sqrsum 1.2418649174102e-005
field min 8.496e-007
field max 7.3132667e-005
statistic Basic.rack[13].node[4].app 	hops
field count 39735
field mean 5.32991065811
field stddev 1.0339069773253
field sum 211784
field sqrsum 1171264
field min 4
field max 7
statistic Basic.rack[13].node[5].app 	throughput
field count 39687
field mean 19844
field stddev 11456.794403322
field sum 787548828
field sqrsum 20837229407500
field min 1
field max 39687
statistic Basic.rack[13].node[5].app 	"End-to-End Delay"
field count 39687
field mean 1.4073134915491e-005
field stddev 1.0821703471484e-005
field sum 0.55852050539111
field sqrsum 1.2507732756895e-005
field min 8.496e-007
field max 7.2983065e-005
statistic Basic.rack[13].node[5].app 	hops
field count 39687
field mean 5.3330309673193
field stddev 1.0264521587939
field sum 211652
field sqrsum 1170560
field min 4
field max 7
statistic Basic.rack[13].node[6].app 	throughput
field count 39743
field mean 19872
field stddev 11472.960210861
field sum 789772896
field sqrsum 20925559394784
field min 1
field max 39743
statistic Basic.rack[13].node[6].app 	"End-to-End Delay"
field count 39743
field mean 1.4068940985082e-005
field stddev 1.0803227519684e-005
field sum 0.55914192157011
field sqrsum 1.2504812581528e-005
field min 8.496e-007
field max 7.4490896e-005
statistic Basic.rack[13].node[6].app 	hops
field count 39743
field mean 5.3474070905568
field stddev 1.0259129424686
field sum 212522
field sqrsum 1178270
field min 4
field max 7
statistic Basic.rack[13].node[7].app 	throughput
field count 40048
field mean 20024.5
field stddev 11561.006126919
field sum 801941176
field sqrsum 21411027458024
field min 1
field max 40048
statistic Basic.rack[13].node[7].app 	"End-to-End Delay"
field count 40048
field mean 1.3980102414306e-005
field stddev 1.0755690662502e-005
field sum 0.55987514148811
field sqrsum 1.2459944271761e-005
field min 8.496e-007
field max 9.4695726e-005
statistic Basic.rack[13].node[7].app 	hops
field count 40048
field mean 5.3403665601278
field stddev 1.02169469506
field sum 213871
field sqrsum 1183953
field min 4
field max 7
statistic Basic.rack[13].node[8].app 	throughput
field count 39839
field mean 19920
field stddev 11500.673023784
field sum 793592880
field sqrsum 21077562361840
field min 1
field max 39839
statistic Basic.rack[13].node[8].app 	"End-to-End Delay"
field count 39839
field mean 1.394921909993e-005
field stddev 1.0769642383425e-005
field sum 0.55572293972211
field sqrsum 1.2372519325791e-005
field min 8.496e-007
field max 9.3124808e-005
statistic Basic.rack[13].node[8].app 	hops
field count 39839
field mean 5.3345465498632
field stddev 1.0289640889388
field sum 212523
field sqrsum 1175893
field min 4
field max 7
statistic Basic.rack[13].node[9].app 	throughput
field count 40261
field mean 20131
field stddev 11622.493930593
field sum 810494191
field sqrsum 21754474580631
field min 1
field max 40261
statistic Basic.rack[13].node[9].app 	"End-to-End Delay"
field count 40261
field mean 1.4059491446688e-005
field stddev 1.081742549523e-005
field sum 0.56604918513511
field sqrsum 1.2669455791136e-005
field min 8.496e-007
field max 8.1176018e-005
statistic Basic.rack[13].node[9].app 	hops
field count 40261
field mean 5.3390377784953
field stddev 1.026428394468
field sum 214955
field sqrsum 1190069
field min 4
field max 7
statistic Basic.rack[13].eps.queue[0] 	dropsum
field count 0
field mean nan
field stddev nan
field sum 0
field sqrsum 0
field min nan
field max nan
statistic Basic.rack[13].eps.queue[1] 	dropsum
field count 0
field mean nan
field stddev nan
field sum 0
field sqrsum 0
field min nan
field max nan
statistic Basic.rack[13].eps.queue[2] 	dropsum
field count 0
field mean nan
field stddev nan
field sum 0
field sqrsum 0
field min nan
field max nan
statistic Basic.rack[13].eps.queue[3] 	dropsum
field count 0
field mean nan
field stddev nan
field sum 0
field sqrsum 0
field min nan
field max nan
statistic Basic.rack[14].node[0].app 	throughput
field count 39877
field mean 19939
field stddev 11511.6426789
field sum 795107503
field sqrsum 21137932967255
field min 1
field max 39877
statistic Basic.rack[14].node[0].app 	"End-to-End Delay"
field count 39877
field mean 1.7796262878228e-005
field stddev 1.0389902883215e-005
field sum 0.7096615747951
field sqrsum 1.6933941406378e-005
field min 8.496e-007
field max 8.6872955e-005
statistic Basic.rack[14].node[0].app 	hops
field count 39877
field mean 5.0880958948767
field stddev 1.0424763424166
field sum 202898
field sqrsum 1075700
field min 3
field max 7
statistic Basic.rack[14].node[1].app 	throughput
field count 39723
field mean 19862
field stddev 11467.186708169
field sum 788978226
field sqrsum 20893984373674
field min 1
field max 39723
statistic Basic.rack[14].node[1].app 	"End-to-End Delay"
field count 39723
field mean 1.770786658596e-005
field stddev 1.0402294923845e-005
field sum 0.7034095843941
field sqrsum 1.6754110911411e-005
field min 8.496e-007
field max 9.2925934e-005
statistic Basic.rack[14].node[1].app 	hops
field count 39723
field mean 5.0785690909549
field stddev 1.0406348770158
field sum 201736
field sqrsum 1067546
field min 3
field max 7
statistic Basic.rack[14].node[2].app 	throughput
field count 39605
field mean 19803
field stddev 11433.123042284
field sum 784297815
field sqrsum 20708338074655
field min 1
field max 39605
statistic Basic.rack[14].node[2].app 	"End-to-End Delay"
field count 39605
field mean 1.7729133798437e-005
field stddev 1.0452836464006e-005
field sum 0.7021623440871
field sqrsum 1.6775934083378e-005
field min 8.496e-007
field max 0.000122299372
statistic Basic.rack[14].node[2].app 	hops
field count 39605
field mean 5.0868829693221
field stddev 1.0360148783502
field sum 201466
field sqrsum 1067342
field min 3
field max 7
statistic Basic.rack[14].node[3].app 	throughput
field count 40006
field mean 20003.5
field stddev 11548.881771265
field sum 800260021
field sqrsum 21343735020091
field min 1
field max 40006
statistic Basic.rack[14].node[3].app 	"End-to-End Delay"
field count 40006
field mean 1.7746933239017e-005
field stddev 1.0359066062968e-005
field sum 0.7099838111601
field sqrsum 1.6892981836566e-005
field min 8.496e-007
field max 8.9034278e-005
statistic Basic.rack[14].node[3].app 	hops
field count 40006
field mean 5.0892116182573
field stddev 1.0413114578103
field sum 203599
field sqrsum 1079537
field min 3
field max 7
statistic Basic.rack[14].node[4].app 	throughput
field count 40120
field mean 20060.5
field stddev 11581.790736612
field sum 804827260
field sqrsum 21526714723220
field min 1
field max 40120
statistic Basic.rack[14].node[4].app 	"End-to-End Delay"
field count 40120
field mean 1.7725657133976e-005
field stddev 1.0332050953558e-005
field sum 0.71115336421511
field sqrsum 1.6888415181979e-005
field min 8.496e-007
field max 9.1645234e-005
statistic Basic.rack[14].node[4].app 	hops
field count 40120
field mean 5.0791625124626
field stddev 1.0388473732999
field sum 203776
field sqrsum 1078308
field min 3
field max 7
statistic Basic.rack[14].node[5].app 	throughput
field count 40459
field mean 20230
field stddev 11679.651607247
field sum 818485570
field sqrsum 22077011279610
field min 1
field max 40459
statistic Basic.rack[14].node[5].app 	"End-to-End Delay"
field count 40459
field mean 1.7734212339136e-005
field stddev 1.0468299111336e-005
field sum 0.71750849702911
field sqrsum 1.7158049553943e-005
field min 8.496e-007
field max 9.9812894e-005
statistic Basic.rack[14].node[5].app 	hops
field count 40459
field mean 5.0839615413134
field stddev 1.0426869951994
field sum 205692
field sqrsum 1089716
field min 3
field max 7
statistic Basic.rack[14].node[6].app 	throughput
field count 39852
field mean 19926.5
field stddev 11504.425800534
field sum 794110878
field sqrsum 21098202510330
field min 1
field max 39852
statistic Basic.rack[14].node[6].app 	"End-to-End Delay"
field count 39852
field mean 1.7679560848693e-005
field stddev 1.0359273477745e-005
field sum 0.7045658589421
field sqrsum 1.6733006987045e-005
field min 8.496e-007
field max 0.000122429548
statistic Basic.rack[14].node[6].app 	hops
field count 39852
field mean 5.0843621399177
field stddev 1.0438237413237
field sum 202622
field sqrsum 1073624
field min 3
field max 7
statistic Basic.rack[14].node[7].app 	throughput
field count 39847
field mean 19924
field stddev 11502.982424861
field sum 793911628
field sqrsum 21090262397820
field min 1
field max 39847
statistic Basic.rack[14].node[7].app 	"End-to-End Delay"
field count 39847
field mean 1.7780313259922e-005
field stddev 1.0481116836108e-005
field sum 0.7084921424681
field sqrsum 1.6974447153801e-005
field min 8.496e-007
field max 0.000101338957
statistic Basic.rack[14].node[7].app 	hops
field count 39847
field mean 5.0835445579341
field stddev 1.0346950228248
field sum 202564
field sqrsum 1072402
field min 3
field max 7
statistic Basic.rack[14].node[8].app 	throughput
field count 40451
field mean 20226
field stddev 11677.34220617
field sum 818161926
field sqrsum 22063918099726
field min 1
field max 40451
statistic Basic.rack[14].node[8].app 	"End-to-End Delay"
field count 40451
field mean 1.7762126848931e-005
field stddev 1.0365306389313e-005
field sum 0.7184957931661
field sqrsum 1.7107944289858e-005
field min 8.496e-007
field max 8.0679318e-005
statistic Basic.rack[14].node[8].app 	hops
field count 40451
field mean 5.093693604608
field stddev 1.0331573559192
field sum 206045
field sqrsum 1092707
field min 3
field max 7
statistic Basic.rack[14].node[9].app 	throughput
field count 39889
field mean 19945
field stddev 11515.106780515
field sum 795586105
field sqrsum 21157021290265
field min 1
field max 39889
statistic Basic.rack[14].node[9].app 	"End-to-End Delay"
field count 39889
field mean 1.7672600455241e-005
field stddev 1.0371409179093e-005
field sum 0.7049423595591
field sqrsum 1.6748762392493e-005
field min 8.496e-007
field max 0.000101866099
statistic Basic.rack[14].node[9].app 	hops
field count 39889
field mean 5.0775151044148
field stddev 1.0411258920868
field sum 202537
field sqrsum 1071621
field min 3
field max 7
statistic Basic.rack[14].eps.queue[0] 	dropsum
field count 0
field mean nan
field stddev nan
field sum 0
field sqrsum 0
field min nan
field max nan
statistic Basic.rack[14].eps.queue[1] 	dropsum
field count 0
field mean nan
field stddev nan
field sum 0
field sqrsum 0
field min nan
field max nan
statistic Basic.rack[14].eps.queue[2] 	dropsum
field count 0
field mean nan
field stddev nan
field sum 0
field sqrsum 0
field min nan
field max nan
statistic Basic.rack[14].eps.queue[3] 	dropsum
field count 0
field mean nan
field stddev nan
field sum 0
field sqrsum 0
field min nan
field max nan
statistic Basic.rack[15].node[0].app 	throughput
field count 40036
field mean 20018.5
field stddev 11557.542025304
field sum 801460666
field sqrsum 21391786636206
field min 1
field max 40036
statistic Basic.rack[15].node[0].app 	"End-to-End Delay"
field count 40036
field mean 1.7729556270984e-005
field stddev 1.0360843524632e-005
field sum 0.70982051486511
field sqrsum 1.6882443050025e-005
field min 8.496e-007
field max 0.000105109382
statistic Basic.rack[15].node[0].app 	hops
field count 40036
field mean 5.0817764012389
field stddev 1.042284049587
field sum 203454
field sqrsum 1077400
field min 3
field max 7
statistic Basic.rack[15].node[1].app 	throughput
field count 40033
field mean 20017
field stddev 11556.6759999
field sum 801340561
field sqrsum 21386978232529
field min 1
field max 40033
statistic Basic.rack[15].node[1].app 	"End-to-End Delay"
field count 40033
field mean 1.7763625879627e-005
field stddev 1.0379901678068e-005
field sum 0.7111312348391
field sqrsum 1.6945411316336e-005
field min 8.496e-007
field max 9.5058586e-005
statistic Basic.rack[15].node[1].app 	hops
field count 40033
field mean 5.0823820348213
field stddev 1.03638714898
field sum 203463
field sqrsum 1077075
field min 3
field max 7
statistic Basic.rack[15].node[2].app 	throughput
field count 39686
field mean 19843.5
field stddev 11456.505728188
field sum 787509141
field sqrsum 20835654349531
field min 1
field max 39686
statistic Basic.rack[15].node[2].app 	"End-to-End Delay"
field count 39686
field mean 1.7724947204004e-005
field stddev 1.0395616480522e-005
field sum 0.7034322547381
field sqrsum 1.6757011571998e-005
field min 8.496e-007
field max 8.8651202e-005
statistic Basic.rack[15].node[2].app 	hops
field count 39686
field mean 5.0874363755481
field stddev 1.0404033363808
field sum 201900
field sqrsum 1070110
field min 3
field max 7
statistic Basic.rack[15].node[3].app 	throughput
field count 39974
field mean 19987.5
field stddev 11539.644166958
field sum 798980325
field sqrsum 21292559334475
field min 1
field max 39974
statistic Basic.rack[15].node[3].app 	"End-to-End Delay"
field count 39974
field mean 1.768254314172e-005
field stddev 1.0381631404654e-005
field sum 0.70684197954711
field sqrsum 1.6806984609298e-005
field min 8.496e-007
field max 8.4449995e-005
statistic Basic.rack[15].node[3].app 	hops
field count 39974
field mean 5.0790263671386
field stddev 1.036561215068
field sum 203029
field sqrsum 1074139
field min 3
field max 7
statistic Basic.rack[15].node[4].app 	throughput
field count 39847
field mean 19924
field stddev 11502.982424861
field sum 793911628
field sqrsum 21090262397820
field min 1
field max 39847
statistic Basic.rack[15].node[4].app 	"End-to-End Delay"
field count 39847
field mean 1.7804890885088e-005
field stddev 1.0350700080739e-005
field sum 0.7094714870981
field sqrsum 1.6901043003526e-005
field min 8.496e-007
field max 8.5868733e-005
statistic Basic.rack[15].node[4].app 	hops
field count 39847
field mean 5.094009586669
field stddev 1.0384110204446
field sum 202981
field sqrsum 1076953
field min 3
field max 7
statistic Basic.rack[15].node[5].app 	throughput
field count 39830
field mean 19915.5
field stddev 11498.074947573
field sum 793234365
field sqrsum 21063280916755
field min 1
field max 39830
statistic Basic.rack[15].node[5].app 	"End-to-End Delay"
field count 39830
field mean 1.7742904293425e-005
field stddev 1.0366304946308e-005
field sum 0.70669987800711
field sqrsum 1.681894372167e-005
field min 8.496e-007
field max 0.000113326647
statistic Basic.rack[15].node[5].app 	hops
field count 39830
field mean 5.0825257343711
field stddev 1.0424196989558
field sum 202437
field sqrsum 1072171
field min 3
field max 7
statistic Basic.rack[15].node[6].app 	throughput
field count 39905
field mean 19953
field stddev 11519.725582669
field sum 796224465
field sqrsum 21182490258705
field min 1
field max 39905
statistic Basic.rack[15].node[6].app 	"End-to-End Delay"
field count 39905
field mean 1.7754787031402e-005
field stddev 1.0377674838715e-005
field sum 0.70850477648809
field sqrsum 1.6876857990635e-005
field min 8.496e-007
field max 8.3491076e-005
statistic Basic.rack[15].node[6].app 	hops
field count 39905
field mean 5.0854529507581
field stddev 1.0387756579889
field sum 202935
field sqrsum 1075075
field min 3
field max 7
statistic Basic.rack[15].node[7].app 	throughput
field count 39883
field mean 19942
field stddev 11513.374729707
field sum 795346786
field sqrsum 21147475692954
field min 1
field max 39883
statistic Basic.rack[15].node[7].app 	"End-to-End Delay"
field count 39883
field mean 1.7718199446408e-005
field stddev 1.0324580504989e-005
field sum 0.7066549485211
field sqrsum 1.6771953380261e-005
field min 8.496e-007
field max 8.000947e-005
statistic Basic.rack[15].node[7].app 	hops
field count 39883
field mean 5.0814131334152
field stddev 1.0335460950583
field sum 202662
field sqrsum 1072412
field min 3
field max 7
statistic Basic.rack[15].node[8].app 	throughput
field count 39930
field mean 19965.5
field stddev 11526.942461034
field sum 797222415
field sqrsum 21222326428105
field min 1
field max 39930
statistic Basic.rack[15].node[8].app 	"End-to-End Delay"
field count 39930
field mean 1.7761788417057e-005
field stddev 1.038159633052e-005
field sum 0.7092282114931
field sqrsum 1.6900610921235e-005
field min 8.496e-007
field max 8.3761046e-005
statistic Basic.rack[15].node[8].app 	hops
field count 39930
field mean 5.0870272977711
field stddev 1.0344873342315
field sum 203125
field sqrsum 1076033
field min 3
field max 7
statistic Basic.rack[15].node[9].app 	throughput
field count 40168
field mean 20084.5
field stddev 11595.647143073
field sum 806754196
field sqrsum 21604070614684
field min 1
field max 40168
statistic Basic.rack[15].node[9].app 	"End-to-End Delay"
field count 40168
field mean 1.7758290685623e-005
field stddev 1.042164678684e-005
field sum 0.7133150202601
field sqrsum 1.7029822340718e-005
field min 8.496e-007
field max 0.000107515526
statistic Basic.rack[15].node[9].app 	hops
field count 40168
field mean 5.0905447122087
field stddev 1.0336736973351
field sum 204477
field sqrsum 1083817
field min 3
field max 7
statistic Basic.rack[15].eps.queue[0] 	dropsum
field count 0
field mean nan
field stddev nan
field sum 0
field sqrsum 0
field min nan
field max nan
statistic Basic.rack[15].eps.queue[1] 	dropsum
field count 0
field mean nan
field stddev nan
field sum 0
field sqrsum 0
field min nan
field max nan
statistic Basic.rack[15].eps.queue[2] 	dropsum
field count 0
field mean nan
field stddev nan
field sum 0
field sqrsum 0
field min nan
field max nan
statistic Basic.rack[15].eps.queue[3] 	dropsum
field count 0
field mean nan
field stddev nan
field sum 0
field sqrsum 0
field min nan
field max nan
