version 2
run Basic-15-20180510-16:09:08-17780
attr configname Basic
attr datetime 20180510-16:09:08
attr experiment Basic
attr inifile omnetpp.ini
attr iterationvars "$0=exponential(0.5 ms), $1=7, $2=5"
attr iterationvarsf exponential(0.5_ms),7,5-
attr measurement "$0=exponential(0.5 ms), $1=7, $2=5"
attr network Networks.Basic
attr processid 17780
attr repetition 0
attr replication #0
attr resultdir results
attr runnumber 15
attr seedset 15
param **.frameCapacity 50
param **.packetLength "1024 bytes"
param **.pattern 7
param **.sendIaTime "exponential(0.5 ms)"
param **.tp 5

statistic Basic.rack[0].node[0].app 	throughput
field count 19953
field mean 9977
field stddev 5760.0792963292
field sum 199071081
field sqrsum 2648109876489
field min 1
field max 19953
statistic Basic.rack[0].node[0].app 	"End-to-End Delay"
field count 19953
field mean 4.953693335037e-006
field stddev 4.3337550406987e-006
field sum 0.098841043113992
field sqrsum 8.6435536278538e-007
field min 4e-007
field max 2.3644692e-005
statistic Basic.rack[0].node[0].app 	hops
field count 19953
field mean 3.0021049466246
field stddev 0.70248126768446
field sum 59901
field sqrsum 189675
field min 2
field max 4
statistic Basic.rack[0].node[1].app 	throughput
field count 19890
field mean 9945.5
field stddev 5741.892762844
field sum 197815995
field sqrsum 2623106032365
field min 1
field max 19890
statistic Basic.rack[0].node[1].app 	"End-to-End Delay"
field count 19890
field mean 4.9131970911509e-006
field stddev 4.31850734783e-006
field sum 0.097723490142992
field sqrsum 8.5105478663872e-007
field min 4e-007
field max 2.6527251e-005
statistic Basic.rack[0].node[1].app 	hops
field count 19890
field mean 3.0066365007541
field stddev 0.70513526822024
field sum 59802
field sqrsum 189692
field min 2
field max 4
statistic Basic.rack[0].node[2].app 	throughput
field count 20026
field mean 10013.5
field stddev 5781.1525811612
field sum 200530351
field sqrsum 2677280716201
field min 1
field max 20026
statistic Basic.rack[0].node[2].app 	"End-to-End Delay"
field count 20026
field mean 4.8897697494253e-006
field stddev 4.3361225537187e-006
field sum 0.097922529001992
field sqrsum 8.5532784508855e-007
field min 4e-007
field max 2.451289e-005
statistic Basic.rack[0].node[2].app 	hops
field count 20026
field mean 2.9912114251473
field stddev 0.70759931426928
field sum 59902
field sqrsum 189206
field min 2
field max 4
statistic Basic.rack[0].node[3].app 	throughput
field count 20239
field mean 10120
field stddev 5842.6403848488
field sum 204818680
field sqrsum 2763618449240
field min 1
field max 20239
statistic Basic.rack[0].node[3].app 	"End-to-End Delay"
field count 20239
field mean 4.9415048803791e-006
field stddev 4.319538110577e-006
field sum 0.10001111727399
field sqrsum 8.7181431533445e-007
field min 4e-007
field max 2.4349493e-005
statistic Basic.rack[0].node[3].app 	hops
field count 20239
field mean 3.0052868224715
field stddev 0.7028816461248
field sum 60824
field sqrsum 192792
field min 2
field max 4
statistic Basic.rack[0].node[4].app 	throughput
field count 20086
field mean 10043.5
field stddev 5798.4730892423
field sum 201733741
field sqrsum 2701416525731
field min 1
field max 20086
statistic Basic.rack[0].node[4].app 	"End-to-End Delay"
field count 20086
field mean 4.8578769382651e-006
field stddev 4.3312185558476e-006
field sum 0.097575316181992
field sqrsum 8.5079251539996e-007
field min 4e-007
field max 2.2247735e-005
statistic Basic.rack[0].node[4].app 	hops
field count 20086
field mean 3.0113511898835
field stddev 0.71058051380703
field sum 60486
field sqrsum 192286
field min 2
field max 4
statistic Basic.rack[0].node[5].app 	throughput
field count 20167
field mean 10084
field stddev 5821.8557751517
field sum 203364028
field sqrsum 2734229356460
field min 1
field max 20167
statistic Basic.rack[0].node[5].app 	"End-to-End Delay"
field count 20167
field mean 4.9419197911931e-006
field stddev 4.326617559525e-006
field sum 0.099663696428992
field sqrsum 8.7002984081176e-007
field min 4e-007
field max 2.2170069e-005
statistic Basic.rack[0].node[5].app 	hops
field count 20167
field mean 2.997867803838
field stddev 0.70302432194139
field sum 60458
field sqrsum 191212
field min 2
field max 4
statistic Basic.rack[0].node[6].app 	throughput
field count 20103
field mean 10052
field stddev 5803.3805665319
field sum 202075356
field sqrsum 2708281279564
field min 1
field max 20103
statistic Basic.rack[0].node[6].app 	"End-to-End Delay"
field count 20103
field mean 4.9188440419834e-006
field stddev 4.3252795506573e-006
field sum 0.098883521775992
field sqrsum 8.6246170617038e-007
field min 4e-007
field max 2.4769347e-005
statistic Basic.rack[0].node[6].app 	hops
field count 20103
field mean 2.9976620404915
field stddev 0.7047774672022
field sum 60262
field sqrsum 190630
field min 2
field max 4
statistic Basic.rack[0].node[7].app 	throughput
field count 19858
field mean 9929.5
field stddev 5732.655158534
field sum 197180011
field sqrsum 2610466165629
field min 1
field max 19858
statistic Basic.rack[0].node[7].app 	"End-to-End Delay"
field count 19858
field mean 4.8621298959609e-006
field stddev 4.3218197372003e-006
field sum 0.096552175473992
field sqrsum 8.40340763714e-007
field min 4e-007
field max 2.2952054e-005
statistic Basic.rack[0].node[7].app 	hops
field count 19858
field mean 2.9976331956894
field stddev 0.70939595626323
field sum 59527
field sqrsum 188433
field min 2
field max 4
statistic Basic.rack[0].node[8].app 	throughput
field count 19880
field mean 9940.5
field stddev 5739.0060114971
field sum 197617140
field sqrsum 2619151701180
field min 1
field max 19880
statistic Basic.rack[0].node[8].app 	"End-to-End Delay"
field count 19880
field mean 4.9338503668507e-006
field stddev 4.3289862531554e-006
field sum 0.098084945292993
field sqrsum 8.5647132815696e-007
field min 4e-007
field max 2.6434087e-005
statistic Basic.rack[0].node[8].app 	hops
field count 19880
field mean 3.0125754527163
field stddev 0.70408951577245
field sum 59890
field sqrsum 190278
field min 2
field max 4
statistic Basic.rack[0].node[9].app 	throughput
field count 19757
field mean 9879
field stddev 5703.4989699307
field sum 195179403
field sqrsum 2570838036515
field min 1
field max 19757
statistic Basic.rack[0].node[9].app 	"End-to-End Delay"
field count 19757
field mean 4.8816139234698e-006
field stddev 4.3457322817153e-006
field sum 0.096446046285992
field sqrsum 8.4391210876846e-007
field min 4e-007
field max 2.3225059e-005
statistic Basic.rack[0].node[9].app 	hops
field count 19757
field mean 3.0023789036797
field stddev 0.70892583163574
field sum 59318
field sqrsum 188024
field min 2
field max 4
statistic Basic.rack[0].eps.queue[0] 	dropsum
field count 0
field mean nan
field stddev nan
field sum 0
field sqrsum 0
field min nan
field max nan
statistic Basic.rack[0].eps.queue[1] 	dropsum
field count 0
field mean nan
field stddev nan
field sum 0
field sqrsum 0
field min nan
field max nan
statistic Basic.rack[0].eps.queue[2] 	dropsum
field count 0
field mean nan
field stddev nan
field sum 0
field sqrsum 0
field min nan
field max nan
statistic Basic.rack[0].eps.queue[3] 	dropsum
field count 0
field mean nan
field stddev nan
field sum 0
field sqrsum 0
field min nan
field max nan
statistic Basic.rack[1].node[0].app 	throughput
field count 20329
field mean 10165
field stddev 5868.6211469703
field sum 206644285
field sqrsum 2800649994605
field min 1
field max 20329
statistic Basic.rack[1].node[0].app 	"End-to-End Delay"
field count 20329
field mean 4.8942349486444e-006
field stddev 4.3429303092772e-006
field sum 0.099494902270992
field sqrsum 8.7035872365558e-007
field min 4e-007
field max 2.3046776e-005
statistic Basic.rack[1].node[0].app 	hops
field count 20329
field mean 2.992129470215
field stddev 0.7075498264771
field sum 60827
field sqrsum 192179
field min 2
field max 4
statistic Basic.rack[1].node[1].app 	throughput
field count 19993
field mean 9997
field stddev 5771.6263017166
field sum 199870021
field sqrsum 2664067509909
field min 1
field max 19993
statistic Basic.rack[1].node[1].app 	"End-to-End Delay"
field count 19993
field mean 4.9162098049313e-006
field stddev 4.3316951510145e-006
field sum 0.098289782629992
field sqrsum 8.5833474205354e-007
field min 4e-007
field max 2.1583526e-005
statistic Basic.rack[1].node[1].app 	hops
field count 19993
field mean 2.9983494222978
field stddev 0.7053696159212
field sum 59946
field sqrsum 189686
field min 2
field max 4
statistic Basic.rack[1].node[2].app 	throughput
field count 19951
field mean 9976
field stddev 5759.5019460598
field sum 199031176
field sqrsum 2647313671976
field min 1
field max 19951
statistic Basic.rack[1].node[2].app 	"End-to-End Delay"
field count 19951
field mean 4.8964992032977e-006
field stddev 4.3321357799943e-006
field sum 0.097690055604992
field sqrsum 8.5274891774527e-007
field min 4e-007
field max 2.4883009e-005
statistic Basic.rack[1].node[2].app 	hops
field count 19951
field mean 2.9989975439828
field stddev 0.70699973061643
field sum 59833
field sqrsum 189411
field min 2
field max 4
statistic Basic.rack[1].node[3].app 	throughput
field count 20094
field mean 10047.5
field stddev 5800.7824903197
field sum 201894465
field sqrsum 2704645551295
field min 1
field max 20094
statistic Basic.rack[1].node[3].app 	"End-to-End Delay"
field count 20094
field mean 4.9229701184927e-006
field stddev 4.3485387155876e-006
field sum 0.098922161560992
field sqrsum 8.6694523501413e-007
field min 4e-007
field max 2.6036282e-005
statistic Basic.rack[1].node[3].app 	hops
field count 20094
field mean 3.0008460236887
field stddev 0.70564430721099
field sum 60299
field sqrsum 190953
field min 2
field max 4
statistic Basic.rack[1].node[4].app 	throughput
field count 19911
field mean 9956
field stddev 5747.9549406724
field sum 198233916
field sqrsum 2631423078956
field min 1
field max 19911
statistic Basic.rack[1].node[4].app 	"End-to-End Delay"
field count 19911
field mean 4.903591284365e-006
field stddev 4.3348105638477e-006
field sum 0.097635406062992
field sqrsum 8.5288462626864e-007
field min 4e-007
field max 2.2791774e-005
statistic Basic.rack[1].node[4].app 	hops
field count 19911
field mean 3.002008939782
field stddev 0.70664207753024
field sum 59773
field sqrsum 189381
field min 2
field max 4
statistic Basic.rack[1].node[5].app 	throughput
field count 19932
field mean 9966.5
field stddev 5754.0171185008
field sum 198652278
field sqrsum 2639757687490
field min 1
field max 19932
statistic Basic.rack[1].node[5].app 	"End-to-End Delay"
field count 19932
field mean 4.8976882827108e-006
field stddev 4.3405606517013e-006
field sum 0.097620722850992
field sqrsum 8.5362521367182e-007
field min 4e-007
field max 2.464151e-005
statistic Basic.rack[1].node[5].app 	hops
field count 19932
field mean 2.9961368653422
field stddev 0.70729133140196
field sum 59719
field sqrsum 188897
field min 2
field max 4
statistic Basic.rack[1].node[6].app 	throughput
field count 19807
field mean 9904
field stddev 5717.932726665
field sum 196168528
field sqrsum 2590405412240
field min 1
field max 19807
statistic Basic.rack[1].node[6].app 	"End-to-End Delay"
field count 19807
field mean 4.8774608388949e-006
field stddev 4.3256006712001e-006
field sum 0.096607866835992
field sqrsum 8.4178761124913e-007
field min 4e-007
field max 2.2592139e-005
statistic Basic.rack[1].node[6].app 	hops
field count 19807
field mean 3.0042409249255
field stddev 0.70841381580202
field sum 59505
field sqrsum 188707
field min 2
field max 4
statistic Basic.rack[1].node[7].app 	throughput
field count 19886
field mean 9943.5
field stddev 5740.7380623052
field sum 197736441
field sqrsum 2621523822631
field min 1
field max 19886
statistic Basic.rack[1].node[7].app 	"End-to-End Delay"
field count 19886
field mean 4.8908096493006e-006
field stddev 4.3362730694828e-006
field sum 0.097258640685992
field sqrsum 8.4957640563204e-007
field min 4e-007
field max 2.4131949e-005
statistic Basic.rack[1].node[7].app 	hops
field count 19886
field mean 2.997033088605
field stddev 0.70775811299044
field sum 59599
field sqrsum 188581
field min 2
field max 4
statistic Basic.rack[1].node[8].app 	throughput
field count 20117
field mean 10059
field stddev 5807.4220184175
field sum 202356903
field sqrsum 2713943330735
field min 1
field max 20117
statistic Basic.rack[1].node[8].app 	"End-to-End Delay"
field count 20117
field mean 4.9617445407363e-006
field stddev 4.3414761845175e-006
field sum 0.099815414925992
field sqrsum 8.7441331549847e-007
field min 4e-007
field max 2.3242372e-005
statistic Basic.rack[1].node[8].app 	hops
field count 20117
field mean 3.0030322612716
field stddev 0.70219718205409
field sum 60412
field sqrsum 191338
field min 2
field max 4
statistic Basic.rack[1].node[9].app 	throughput
field count 19975
field mean 9988
field stddev 5766.4301492923
field sum 199510300
field sqrsum 2656878665100
field min 1
field max 19975
statistic Basic.rack[1].node[9].app 	"End-to-End Delay"
field count 19975
field mean 4.8761445465328e-006
field stddev 4.3243446863614e-006
field sum 0.097400987316992
field sqrsum 8.4845423358077e-007
field min 4e-007
field max 2.2446245e-005
statistic Basic.rack[1].node[9].app 	hops
field count 19975
field mean 3.0010012515645
field stddev 0.70848538146168
field sum 59945
field sqrsum 189921
field min 2
field max 4
statistic Basic.rack[1].eps.queue[0] 	dropsum
field count 0
field mean nan
field stddev nan
field sum 0
field sqrsum 0
field min nan
field max nan
statistic Basic.rack[1].eps.queue[1] 	dropsum
field count 0
field mean nan
field stddev nan
field sum 0
field sqrsum 0
field min nan
field max nan
statistic Basic.rack[1].eps.queue[2] 	dropsum
field count 0
field mean nan
field stddev nan
field sum 0
field sqrsum 0
field min nan
field max nan
statistic Basic.rack[1].eps.queue[3] 	dropsum
field count 0
field mean nan
field stddev nan
field sum 0
field sqrsum 0
field min nan
field max nan
statistic Basic.rack[2].node[0].app 	throughput
field count 20012
field mean 10006.5
field stddev 5777.1111292756
field sum 200250078
field sqrsum 2671669790650
field min 1
field max 20012
statistic Basic.rack[2].node[0].app 	"End-to-End Delay"
field count 20012
field mean 2.833032163401e-006
field stddev 3.7108212376189e-006
field sum 0.056694639653981
field sqrsum 4.3617309492025e-007
field min 4e-007
field max 2.3543533e-005
statistic Basic.rack[2].node[0].app 	hops
field count 20012
field mean 3.2528482910254
field stddev 0.82707505894952
field sum 65096
field sqrsum 225436
field min 2
field max 4
statistic Basic.rack[2].node[1].app 	throughput
field count 20060
field mean 10030.5
field stddev 5790.9675357405
field sum 201211830
field sqrsum 2690939943810
field min 1
field max 20060
statistic Basic.rack[2].node[1].app 	"End-to-End Delay"
field count 20060
field mean 2.8207646969582e-006
field stddev 3.7009095510374e-006
field sum 0.056584539820981
field sqrsum 4.3435440957863e-007
field min 4e-007
field max 2.0548059e-005
statistic Basic.rack[2].node[1].app 	hops
field count 20060
field mean 3.2334496510469
field stddev 0.83309083849786
field sum 64863
field sqrsum 223653
field min 2
field max 4
statistic Basic.rack[2].node[2].app 	throughput
field count 20061
field mean 10031
field stddev 5791.2562108751
field sum 201231891
field sqrsum 2691342387531
field min 1
field max 20061
statistic Basic.rack[2].node[2].app 	"End-to-End Delay"
field count 20061
field mean 2.7781420131589e-006
field stddev 3.6833283739314e-006
field sum 0.055732306925981
field sqrsum 4.2698443604011e-007
field min 4e-007
field max 2.2032009e-005
statistic Basic.rack[2].node[2].app 	hops
field count 20061
field mean 3.2488908828074
field stddev 0.83224784869781
field sum 65176
field sqrsum 225644
field min 2
field max 4
statistic Basic.rack[2].node[3].app 	throughput
field count 20078
field mean 10039.5
field stddev 5796.1636881648
field sum 201573081
field sqrsum 2698190071239
field min 1
field max 20078
statistic Basic.rack[2].node[3].app 	"End-to-End Delay"
field count 20078
field mean 2.8025976996703e-006
field stddev 3.7023396984759e-006
field sum 0.056270556613981
field sqrsum 4.3290558096544e-007
field min 4e-007
field max 2.0045039e-005
statistic Basic.rack[2].node[3].app 	hops
field count 20078
field mean 3.2459906365176
field stddev 0.83152905308977
field sum 65173
field sqrsum 225433
field min 2
field max 4
statistic Basic.rack[2].node[4].app 	throughput
field count 20251
field mean 10126
field stddev 5846.104486465
field sum 205061626
field sqrsum 2768537012626
field min 1
field max 20251
statistic Basic.rack[2].node[4].app 	"End-to-End Delay"
field count 20251
field mean 2.8378930104677e-006
field stddev 3.7109442476608e-006
field sum 0.057470171354981
field sqrsum 4.4195911858593e-007
field min 4e-007
field max 2.386659e-005
statistic Basic.rack[2].node[4].app 	hops
field count 20251
field mean 3.2628018369463
field stddev 0.82376337917973
field sum 66075
field sqrsum 229331
field min 2
field max 4
statistic Basic.rack[2].node[5].app 	throughput
field count 20185
field mean 10093
field stddev 5827.051927576
field sum 203727205
field sqrsum 2741556997685
field min 1
field max 20185
statistic Basic.rack[2].node[5].app 	"End-to-End Delay"
field count 20185
field mean 2.8276671872668e-006
field stddev 3.73067398451e-006
field sum 0.057076462174981
field sqrsum 4.4231270565314e-007
field min 4e-007
field max 2.237624e-005
statistic Basic.rack[2].node[5].app 	hops
field count 20185
field mean 3.2464206093634
field stddev 0.83004614910414
field sum 65529
field sqrsum 226641
field min 2
field max 4
statistic Basic.rack[2].node[6].app 	throughput
field count 20031
field mean 10016
field stddev 5782.5959568346
field sum 200630496
field sqrsum 2679286520416
field min 1
field max 20031
statistic Basic.rack[2].node[6].app 	"End-to-End Delay"
field count 20031
field mean 2.8013199556678e-006
field stddev 3.6884691174067e-006
field sum 0.056113240031981
field sqrsum 4.2969537181293e-007
field min 4e-007
field max 2.0992963e-005
statistic Basic.rack[2].node[6].app 	hops
field count 20031
field mean 3.2427237781439
field stddev 0.83195890289669
field sum 64955
field sqrsum 224495
field min 2
field max 4
statistic Basic.rack[2].node[7].app 	throughput
field count 20059
field mean 10030
field stddev 5790.6788606058
field sum 201191770
field sqrsum 2690537540210
field min 1
field max 20059
statistic Basic.rack[2].node[7].app 	"End-to-End Delay"
field count 20059
field mean 2.7661424169191e-006
field stddev 3.6680186032499e-006
field sum 0.055486050740981
field sqrsum 4.2334988088518e-007
field min 4e-007
field max 2.1401045e-005
statistic Basic.rack[2].node[7].app 	hops
field count 20059
field mean 3.2509098160427
field stddev 0.83222593373374
field sum 65210
field sqrsum 225884
field min 2
field max 4
statistic Basic.rack[2].node[8].app 	throughput
field count 20172
field mean 10086.5
field stddev 5823.2991508251
field sum 203464878
field sqrsum 2736263500970
field min 1
field max 20172
statistic Basic.rack[2].node[8].app 	"End-to-End Delay"
field count 20172
field mean 2.7914661154561e-006
field stddev 3.6826129478597e-006
field sum 0.056309454480981
field sqrsum 4.3073773675752e-007
field min 4e-007
field max 2.2068575e-005
statistic Basic.rack[2].node[8].app 	hops
field count 20172
field mean 3.2642772159429
field stddev 0.82665842078433
field sum 65847
field sqrsum 228727
field min 2
field max 4
statistic Basic.rack[2].node[9].app 	throughput
field count 20086
field mean 10043.5
field stddev 5798.4730892423
field sum 201733741
field sqrsum 2701416525731
field min 1
field max 20086
statistic Basic.rack[2].node[9].app 	"End-to-End Delay"
field count 20086
field mean 2.8196086723081e-006
field stddev 3.7173864738138e-006
field sum 0.056634659791981
field sqrsum 4.3724143360319e-007
field min 4e-007
field max 2.1514315e-005
statistic Basic.rack[2].node[9].app 	hops
field count 20086
field mean 3.2362839788908
field stddev 0.83305485721525
field sum 65004
field sqrsum 224310
field min 2
field max 4
statistic Basic.rack[2].eps.queue[0] 	dropsum
field count 0
field mean nan
field stddev nan
field sum 0
field sqrsum 0
field min nan
field max nan
statistic Basic.rack[2].eps.queue[1] 	dropsum
field count 0
field mean nan
field stddev nan
field sum 0
field sqrsum 0
field min nan
field max nan
statistic Basic.rack[2].eps.queue[2] 	dropsum
field count 0
field mean nan
field stddev nan
field sum 0
field sqrsum 0
field min nan
field max nan
statistic Basic.rack[2].eps.queue[3] 	dropsum
field count 0
field mean nan
field stddev nan
field sum 0
field sqrsum 0
field min nan
field max nan
statistic Basic.rack[3].node[0].app 	throughput
field count 19872
field mean 9936.5
field stddev 5736.6966104196
field sum 197458128
field sqrsum 2615991099120
field min 1
field max 19872
statistic Basic.rack[3].node[0].app 	"End-to-End Delay"
field count 19872
field mean 2.7811121286726e-006
field stddev 3.6964650316216e-006
field sum 0.055266260220981
field sqrsum 4.252161040758e-007
field min 4e-007
field max 2.3983051e-005
statistic Basic.rack[3].node[0].app 	hops
field count 19872
field mean 3.2498490338164
field stddev 0.83210029362534
field sum 64581
field sqrsum 223637
field min 2
field max 4
statistic Basic.rack[3].node[1].app 	throughput
field count 19926
field mean 9963.5
field stddev 5752.2850676927
field sum 198532701
field sqrsum 2637374577651
field min 1
field max 19926
statistic Basic.rack[3].node[1].app 	"End-to-End Delay"
field count 19926
field mean 2.8227782789813e-006
field stddev 3.7022221102126e-006
field sum 0.056246679986981
field sqrsum 4.3187289395751e-007
field min 4e-007
field max 2.3708949e-005
statistic Basic.rack[3].node[1].app 	hops
field count 19926
field mean 3.2508280638362
field stddev 0.82824545355822
field sum 64776
field sqrsum 224244
field min 2
field max 4
statistic Basic.rack[3].node[2].app 	throughput
field count 19896
field mean 9948.5
field stddev 5743.6248136521
field sum 197935356
field sqrsum 2625480540436
field min 1
field max 19896
statistic Basic.rack[3].node[2].app 	"End-to-End Delay"
field count 19896
field mean 2.8127768531856e-006
field stddev 3.7035681636623e-006
field sum 0.055963008270981
field sqrsum 4.302995733571e-007
field min 4e-007
field max 2.2672997e-005
statistic Basic.rack[3].node[2].app 	hops
field count 19896
field mean 3.2541716928026
field stddev 0.82830225871464
field sum 64745
field sqrsum 224341
field min 2
field max 4
statistic Basic.rack[3].node[3].app 	throughput
field count 20044
field mean 10022.5
field stddev 5786.3487335855
field sum 200890990
field sqrsum 2684506299370
field min 1
field max 20044
statistic Basic.rack[3].node[3].app 	"End-to-End Delay"
field count 20044
field mean 2.8205468914878e-006
field stddev 3.7122650357686e-006
field sum 0.056535041892981
field sqrsum 4.356705497901e-007
field min 4e-007
field max 2.0202829e-005
statistic Basic.rack[3].node[3].app 	hops
field count 20044
field mean 3.2454100977849
field stddev 0.83036675163691
field sum 65051
field sqrsum 224937
field min 2
field max 4
statistic Basic.rack[3].node[4].app 	throughput
field count 20099
field mean 10050
field stddev 5802.2258659932
field sum 201994950
field sqrsum 2706664998350
field min 1
field max 20099
statistic Basic.rack[3].node[4].app 	"End-to-End Delay"
field count 20099
field mean 2.7895920502503e-006
field stddev 3.6851521640632e-006
field sum 0.056068010617981
field sqrsum 4.2934468009354e-007
field min 4e-007
field max 2.1965769e-005
statistic Basic.rack[3].node[4].app 	hops
field count 20099
field mean 3.2527986466988
field stddev 0.8301503902433
field sum 65378
field sqrsum 226512
field min 2
field max 4
statistic Basic.rack[3].node[5].app 	throughput
field count 20104
field mean 10052.5
field stddev 5803.6692416666
field sum 202095460
field sqrsum 2708685450380
field min 1
field max 20104
statistic Basic.rack[3].node[5].app 	"End-to-End Delay"
field count 20104
field mean 2.8640331012227e-006
field stddev 3.7364393333196e-006
field sum 0.05757852146698
field sqrsum 4.4556435005828e-007
field min 4e-007
field max 2.8126535e-005
statistic Basic.rack[3].node[5].app 	hops
field count 20104
field mean 3.2505471547951
field stddev 0.82579520451977
field sum 65349
field sqrsum 226129
field min 2
field max 4
statistic Basic.rack[3].node[6].app 	throughput
field count 20034
field mean 10017.5
field stddev 5783.4619822387
field sum 200690595
field sqrsum 2680490483685
field min 1
field max 20034
statistic Basic.rack[3].node[6].app 	"End-to-End Delay"
field count 20034
field mean 2.8077502869113e-006
field stddev 3.705012840631e-006
field sum 0.056250469247981
field sqrsum 4.3293266911965e-007
field min 4e-007
field max 2.1861748e-005
statistic Basic.rack[3].node[6].app 	hops
field count 20034
field mean 3.259209344115
field stddev 0.82741566113089
field sum 65295
field sqrsum 226525
field min 2
field max 4
statistic Basic.rack[3].node[7].app 	throughput
field count 19931
field mean 9966
field stddev 5753.7284433661
field sum 198632346
field sqrsum 2639360402866
field min 1
field max 19931
statistic Basic.rack[3].node[7].app 	"End-to-End Delay"
field count 19931
field mean 2.859298198835e-006
field stddev 3.7396843254019e-006
field sum 0.056988672400981
field sqrsum 4.416734187035e-007
field min 4e-007
field max 2.0523361e-005
statistic Basic.rack[3].node[7].app 	hops
field count 19931
field mean 3.2406803471978
field stddev 0.82911327307743
field sum 64590
field sqrsum 223016
field min 2
field max 4
statistic Basic.rack[3].node[8].app 	throughput
field count 19919
field mean 9960
field stddev 5750.2643417499
field sum 198393240
field sqrsum 2634596096120
field min 1
field max 19919
statistic Basic.rack[3].node[8].app 	"End-to-End Delay"
field count 19919
field mean 2.7771403848577e-006
field stddev 3.6753881660272e-006
field sum 0.055317859325981
field sqrsum 4.226873293475e-007
field min 4e-007
field max 1.8893235e-005
statistic Basic.rack[3].node[8].app 	hops
field count 19919
field mean 3.2527737336212
field stddev 0.83099064308894
field sum 64792
field sqrsum 224508
field min 2
field max 4
statistic Basic.rack[3].node[9].app 	throughput
field count 20072
field mean 10036.5
field stddev 5794.4316373567
field sum 201452628
field sqrsum 2695771917020
field min 1
field max 20072
statistic Basic.rack[3].node[9].app 	"End-to-End Delay"
field count 20072
field mean 2.786724782781e-006
field stddev 3.6913395572975e-006
field sum 0.055935139839981
field sqrsum 4.2936304009442e-007
field min 4e-007
field max 2.6014853e-005
statistic Basic.rack[3].node[9].app 	hops
field count 20072
field mean 3.259366281387
field stddev 0.82876332222644
field sum 65422
field sqrsum 227020
field min 2
field max 4
statistic Basic.rack[3].eps.queue[0] 	dropsum
field count 0
field mean nan
field stddev nan
field sum 0
field sqrsum 0
field min nan
field max nan
statistic Basic.rack[3].eps.queue[1] 	dropsum
field count 0
field mean nan
field stddev nan
field sum 0
field sqrsum 0
field min nan
field max nan
statistic Basic.rack[3].eps.queue[2] 	dropsum
field count 0
field mean nan
field stddev nan
field sum 0
field sqrsum 0
field min nan
field max nan
statistic Basic.rack[3].eps.queue[3] 	dropsum
field count 0
field mean nan
field stddev nan
field sum 0
field sqrsum 0
field min nan
field max nan
statistic Basic.rack[4].node[0].app 	throughput
field count 20053
field mean 10027
field stddev 5788.9468097977
field sum 201071431
field sqrsum 2688123961039
field min 1
field max 20053
statistic Basic.rack[4].node[0].app 	"End-to-End Delay"
field count 20053
field mean 4.9022018733353e-006
field stddev 4.3303381326479e-006
field sum 0.098303854165993
field sqrsum 8.5791699998373e-007
field min 4e-007
field max 2.0753139e-005
statistic Basic.rack[4].node[0].app 	hops
field count 20053
field mean 3.0070313668778
field stddev 0.70682491824664
field sum 60300
field sqrsum 191342
field min 2
field max 4
statistic Basic.rack[4].node[1].app 	throughput
field count 20139
field mean 10070
field stddev 5813.7728713805
field sum 202799730
field sqrsum 2722856774890
field min 1
field max 20139
statistic Basic.rack[4].node[1].app 	"End-to-End Delay"
field count 20139
field mean 4.936113620239e-006
field stddev 4.3234559490025e-006
field sum 0.099408392197993
field sqrsum 8.6711607899919e-007
field min 4e-007
field max 2.2626779e-005
statistic Basic.rack[4].node[1].app 	hops
field count 20139
field mean 3.010129599285
field stddev 0.70369022767498
field sum 60621
field sqrsum 192449
field min 2
field max 4
statistic Basic.rack[4].node[2].app 	throughput
field count 20025
field mean 10013
field stddev 5780.8639060265
field sum 200510325
field sqrsum 2676879675525
field min 1
field max 20025
statistic Basic.rack[4].node[2].app 	"End-to-End Delay"
field count 20025
field mean 4.8995497136575e-006
field stddev 4.3404054244691e-006
field sum 0.098113483015992
field sqrsum 8.5794641145414e-007
field min 4e-007
field max 3.102463e-005
statistic Basic.rack[4].node[2].app 	hops
field count 20025
field mean 3.0012983770287
field stddev 0.70724682708412
field sum 60101
field sqrsum 190397
field min 2
field max 4
statistic Basic.rack[4].node[3].app 	throughput
field count 20047
field mean 10024
field stddev 5787.2147589896
field sum 200951128
field sqrsum 2685711825720
field min 1
field max 20047
statistic Basic.rack[4].node[3].app 	"End-to-End Delay"
field count 20047
field mean 4.9166719641339e-006
field stddev 4.3292612462183e-006
field sum 0.098564522864993
field sqrsum 8.6032164012385e-007
field min 4e-007
field max 2.3227538e-005
statistic Basic.rack[4].node[3].app 	hops
field count 20047
field mean 3.0047388636704
field stddev 0.70546638467879
field sum 60236
field sqrsum 190970
field min 2
field max 4
statistic Basic.rack[4].node[4].app 	throughput
field count 19834
field mean 9917.5
field stddev 5725.7269553015
field sum 196703695
field sqrsum 2601012958985
field min 1
field max 19834
statistic Basic.rack[4].node[4].app 	"End-to-End Delay"
field count 19834
field mean 4.8968338616513e-006
field stddev 4.3283910095556e-006
field sum 0.097123802811992
field sqrsum 8.4716976123596e-007
field min 4e-007
field max 2.3415814e-005
statistic Basic.rack[4].node[4].app 	hops
field count 19834
field mean 3.0021175758798
field stddev 0.70701447163944
field sum 59544
field sqrsum 188672
field min 2
field max 4
statistic Basic.rack[4].node[5].app 	throughput
field count 19884
field mean 9942.5
field stddev 5740.1607120359
field sum 197696670
field sqrsum 2620732956410
field min 1
field max 19884
statistic Basic.rack[4].node[5].app 	"End-to-End Delay"
field count 19884
field mean 4.9278410151374e-006
field stddev 4.3348483478896e-006
field sum 0.097985190744992
field sqrsum 8.5647510931995e-007
field min 4e-007
field max 2.7440042e-005
statistic Basic.rack[4].node[5].app 	hops
field count 19884
field mean 3.0041742104204
field stddev 0.70472548512285
field sum 59735
field sqrsum 189329
field min 2
field max 4
statistic Basic.rack[4].node[6].app 	throughput
field count 20084
field mean 10042.5
field stddev 5797.8957389729
field sum 201693570
field sqrsum 2700609671110
field min 1
field max 20084
statistic Basic.rack[4].node[6].app 	"End-to-End Delay"
field count 20084
field mean 4.9146681739191e-006
field stddev 4.3299865984353e-006
field sum 0.098706195604992
field sqrsum 8.6164002602832e-007
field min 4e-007
field max 2.2788621e-005
statistic Basic.rack[4].node[6].app 	hops
field count 20084
field mean 3.0012945628361
field stddev 0.70550175496193
field sum 60278
field sqrsum 190908
field min 2
field max 4
statistic Basic.rack[4].node[7].app 	throughput
field count 20051
field mean 10026
field stddev 5788.3694595283
field sum 201031326
field sqrsum 2687319755526
field min 1
field max 20051
statistic Basic.rack[4].node[7].app 	"End-to-End Delay"
field count 20051
field mean 4.8909276828084e-006
field stddev 4.338896784169e-006
field sum 0.098067990967992
field sqrsum 8.5710525916138e-007
field min 4e-007
field max 2.3506957e-005
statistic Basic.rack[4].node[7].app 	hops
field count 20051
field mean 2.9989526706897
field stddev 0.70774053060255
field sum 60132
field sqrsum 190376
field min 2
field max 4
statistic Basic.rack[4].node[8].app 	throughput
field count 20038
field mean 10019.5
field stddev 5784.6166827774
field sum 200770741
field sqrsum 2682096329019
field min 1
field max 20038
statistic Basic.rack[4].node[8].app 	"End-to-End Delay"
field count 20038
field mean 4.8703056528592e-006
field stddev 4.3221412236505e-006
field sum 0.097591184671992
field sqrsum 8.4960818699682e-007
field min 4e-007
field max 2.1863746e-005
statistic Basic.rack[4].node[8].app 	hops
field count 20038
field mean 2.9995009481984
field stddev 0.70878090077139
field sum 60104
field sqrsum 190348
field min 2
field max 4
statistic Basic.rack[4].node[9].app 	throughput
field count 19832
field mean 9916.5
field stddev 5725.1496050322
field sum 196664028
field sqrsum 2600226223540
field min 1
field max 19832
statistic Basic.rack[4].node[9].app 	"End-to-End Delay"
field count 19832
field mean 4.8598319945034e-006
field stddev 4.3370988833185e-006
field sum 0.096380188114992
field sqrsum 8.4142109419484e-007
field min 4e-007
field max 2.512376e-005
statistic Basic.rack[4].node[9].app 	hops
field count 19832
field mean 3.0055465913675
field stddev 0.71051766513993
field sum 59606
field sqrsum 189160
field min 2
field max 4
statistic Basic.rack[4].eps.queue[0] 	dropsum
field count 0
field mean nan
field stddev nan
field sum 0
field sqrsum 0
field min nan
field max nan
statistic Basic.rack[4].eps.queue[1] 	dropsum
field count 0
field mean nan
field stddev nan
field sum 0
field sqrsum 0
field min nan
field max nan
statistic Basic.rack[4].eps.queue[2] 	dropsum
field count 0
field mean nan
field stddev nan
field sum 0
field sqrsum 0
field min nan
field max nan
statistic Basic.rack[4].eps.queue[3] 	dropsum
field count 0
field mean nan
field stddev nan
field sum 0
field sqrsum 0
field min nan
field max nan
statistic Basic.rack[5].node[0].app 	throughput
field count 20101
field mean 10051
field stddev 5802.8032162625
field sum 202035151
field sqrsum 2707473058551
field min 1
field max 20101
statistic Basic.rack[5].node[0].app 	"End-to-End Delay"
field count 20101
field mean 4.8823812027756e-006
field stddev 4.3245217417885e-006
field sum 0.098140744556992
field sqrsum 8.5506044118501e-007
field min 4e-007
field max 2.2119719e-005
statistic Basic.rack[5].node[0].app 	hops
field count 20101
field mean 3.0010944729118
field stddev 0.7080200098922
field sum 60325
field sqrsum 191117
field min 2
field max 4
statistic Basic.rack[5].node[1].app 	throughput
field count 19947
field mean 9974
field stddev 5758.3472455211
field sum 198951378
field sqrsum 2645721741770
field min 1
field max 19947
statistic Basic.rack[5].node[1].app 	"End-to-End Delay"
field count 19947
field mean 4.8568081372634e-006
field stddev 4.3278988944957e-006
field sum 0.096878751913993
field sqrsum 8.4412422916593e-007
field min 4e-007
field max 2.9564257e-005
statistic Basic.rack[5].node[1].app 	hops
field count 19947
field mean 3.0029578382714
field stddev 0.71028405138223
field sum 59900
field sqrsum 189940
field min 2
field max 4
statistic Basic.rack[5].node[2].app 	throughput
field count 20013
field mean 10007
field stddev 5777.3998044103
field sum 200270091
field sqrsum 2672070310819
field min 1
field max 20013
statistic Basic.rack[5].node[2].app 	"End-to-End Delay"
field count 20013
field mean 4.8744489575272e-006
field stddev 4.3279860025551e-006
field sum 0.097552346986992
field sqrsum 8.503679703954e-007
field min 4e-007
field max 2.0811525e-005
statistic Basic.rack[5].node[2].app 	hops
field count 20013
field mean 3.0039474341678
field stddev 0.70889554089604
field sum 60118
field sqrsum 190648
field min 2
field max 4
statistic Basic.rack[5].node[3].app 	throughput
field count 19978
field mean 9989.5
field stddev 5767.2961746963
field sum 199570231
field sqrsum 2658075906689
field min 1
field max 19978
statistic Basic.rack[5].node[3].app 	"End-to-End Delay"
field count 19978
field mean 4.9296523402239e-006
field stddev 4.3492233994966e-006
field sum 0.098484594452992
field sqrsum 8.6337463297966e-007
field min 4e-007
field max 2.398709e-005
statistic Basic.rack[5].node[3].app 	hops
field count 19978
field mean 2.9987486234858
field stddev 0.70513845381901
field sum 59909
field sqrsum 189585
field min 2
field max 4
statistic Basic.rack[5].node[4].app 	throughput
field count 19951
field mean 9976
field stddev 5759.5019460598
field sum 199031176
field sqrsum 2647313671976
field min 1
field max 19951
statistic Basic.rack[5].node[4].app 	"End-to-End Delay"
field count 19951
field mean 4.8962024233368e-006
field stddev 4.3142227372984e-006
field sum 0.097684134547992
field sqrsum 8.4960102694453e-007
field min 4e-007
field max 2.1674909e-005
statistic Basic.rack[5].node[4].app 	hops
field count 19951
field mean 2.9973936143552
field stddev 0.70628629054219
field sum 59801
field sqrsum 189199
field min 2
field max 4
statistic Basic.rack[5].node[5].app 	throughput
field count 20016
field mean 10008.5
field stddev 5778.2658298143
field sum 200330136
field sqrsum 2673272111496
field min 1
field max 20016
statistic Basic.rack[5].node[5].app 	"End-to-End Delay"
field count 20016
field mean 4.8409829591823e-006
field stddev 4.3123249399365e-006
field sum 0.096897114910992
field sqrsum 8.4127915202583e-007
field min 4e-007
field max 2.452556e-005
statistic Basic.rack[5].node[5].app 	hops
field count 20016
field mean 3.0009492406075
field stddev 0.71075327685211
field sum 60067
field sqrsum 190369
field min 2
field max 4
statistic Basic.rack[5].node[6].app 	throughput
field count 19829
field mean 9915
field stddev 5724.2835796281
field sum 196604535
field sqrsum 2599046417855
field min 1
field max 19829
statistic Basic.rack[5].node[6].app 	"End-to-End Delay"
field count 19829
field mean 4.8728453087897e-006
field stddev 4.3287190114574e-006
field sum 0.096623649627992
field sqrsum 8.4236536038678e-007
field min 4e-007
field max 2.4412891e-005
statistic Basic.rack[5].node[6].app 	hops
field count 19829
field mean 3.0017650915326
field stddev 0.7089210143089
field sum 59522
field sqrsum 188636
field min 2
field max 4
statistic Basic.rack[5].node[7].app 	throughput
field count 20144
field mean 10072.5
field stddev 5815.2162470539
field sum 202900440
field sqrsum 2724885275720
field min 1
field max 20144
statistic Basic.rack[5].node[7].app 	"End-to-End Delay"
field count 20144
field mean 4.9254462983018e-006
field stddev 4.3243626141333e-006
field sum 0.099218190232992
field sqrsum 8.6537022419622e-007
field min 4e-007
field max 2.2176669e-005
statistic Basic.rack[5].node[7].app 	hops
field count 20144
field mean 3.0041699761716
field stddev 0.70436859668226
field sum 60516
field sqrsum 191794
field min 2
field max 4
statistic Basic.rack[5].node[8].app 	throughput
field count 19911
field mean 9956
field stddev 5747.9549406724
field sum 198233916
field sqrsum 2631423078956
field min 1
field max 19911
statistic Basic.rack[5].node[8].app 	"End-to-End Delay"
field count 19911
field mean 4.9155793224847e-006
field stddev 4.3453703911715e-006
field sum 0.097874099889992
field sqrsum 8.5705337641015e-007
field min 4e-007
field max 2.4415331e-005
statistic Basic.rack[5].node[8].app 	hops
field count 19911
field mean 3
field stddev 0.70621834412105
field sum 59733
field sqrsum 189129
field min 2
field max 4
statistic Basic.rack[5].node[9].app 	throughput
field count 20126
field mean 10063.5
field stddev 5810.0200946296
field sum 202538001
field sqrsum 2717587384751
field min 1
field max 20126
statistic Basic.rack[5].node[9].app 	"End-to-End Delay"
field count 20126
field mean 4.8437335136139e-006
field stddev 4.3326093759436e-006
field sum 0.097484980694993
field sqrsum 8.4996778615719e-007
field min 4e-007
field max 2.4893047e-005
statistic Basic.rack[5].node[9].app 	hops
field count 20126
field mean 2.9978137732287
field stddev 0.71149929375912
field sum 60334
field sqrsum 191058
field min 2
field max 4
statistic Basic.rack[5].eps.queue[0] 	dropsum
field count 0
field mean nan
field stddev nan
field sum 0
field sqrsum 0
field min nan
field max nan
statistic Basic.rack[5].eps.queue[1] 	dropsum
field count 0
field mean nan
field stddev nan
field sum 0
field sqrsum 0
field min nan
field max nan
statistic Basic.rack[5].eps.queue[2] 	dropsum
field count 0
field mean nan
field stddev nan
field sum 0
field sqrsum 0
field min nan
field max nan
statistic Basic.rack[5].eps.queue[3] 	dropsum
field count 0
field mean nan
field stddev nan
field sum 0
field sqrsum 0
field min nan
field max nan
statistic Basic.rack[6].node[0].app 	throughput
field count 19988
field mean 9994.5
field stddev 5770.1829260432
field sum 199770066
field sqrsum 2662069309494
field min 1
field max 19988
statistic Basic.rack[6].node[0].app 	"End-to-End Delay"
field count 19988
field mean 2.773726228236e-006
field stddev 3.6659958124675e-006
field sum 0.055441239849981
field sqrsum 4.2239461320954e-007
field min 4e-007
field max 2.0510033e-005
statistic Basic.rack[6].node[0].app 	hops
field count 19988
field mean 3.2420952571543
field stddev 0.83386270757921
field sum 64803
field sqrsum 223995
field min 2
field max 4
statistic Basic.rack[6].node[1].app 	throughput
field count 20009
field mean 10005
field stddev 5776.2451038715
field sum 200190045
field sqrsum 2670468470285
field min 1
field max 20009
statistic Basic.rack[6].node[1].app 	"End-to-End Delay"
field count 20009
field mean 2.7948980536249e-006
field stddev 3.7077763492116e-006
field sum 0.055923115154981
field sqrsum 4.313614956584e-007
field min 4e-007
field max 2.1977177e-005
statistic Basic.rack[6].node[1].app 	hops
field count 20009
field mean 3.2459393273027
field stddev 0.83238181426751
field sum 64948
field sqrsum 224680
field min 2
field max 4
statistic Basic.rack[6].node[2].app 	throughput
field count 19577
field mean 9789
field stddev 5651.5374456868
field sum 191639253
field sqrsum 2501211650405
field min 1
field max 19577
statistic Basic.rack[6].node[2].app 	"End-to-End Delay"
field count 19577
field mean 2.8396816832498e-006
field stddev 3.7191155571167e-006
field sum 0.055592448312982
field sqrsum 4.2863657584161e-007
field min 4e-007
field max 2.3091056e-005
statistic Basic.rack[6].node[2].app 	hops
field count 19577
field mean 3.247279971395
field stddev 0.82839861254266
field sum 63572
field sqrsum 219870
field min 2
field max 4
statistic Basic.rack[6].node[3].app 	throughput
field count 19975
field mean 9988
field stddev 5766.4301492923
field sum 199510300
field sqrsum 2656878665100
field min 1
field max 19975
statistic Basic.rack[6].node[3].app 	"End-to-End Delay"
field count 19975
field mean 2.8090926576211e-006
field stddev 3.7091356472231e-006
field sum 0.056111625835981
field sqrsum 4.3241880126457e-007
field min 4e-007
field max 2.0375611e-005
statistic Basic.rack[6].node[3].app 	hops
field count 19975
field mean 3.2499624530663
field stddev 0.83008591664339
field sum 64918
field sqrsum 224744
field min 2
field max 4
statistic Basic.rack[6].node[4].app 	throughput
field count 20107
field mean 10054
field stddev 5804.5352670706
field sum 202155778
field sqrsum 2709898204090
field min 1
field max 20107
statistic Basic.rack[6].node[4].app 	"End-to-End Delay"
field count 20107
field mean 2.8085068040971e-006
field stddev 3.6942216350575e-006
field sum 0.05647064630998
field sqrsum 4.3299027516171e-007
field min 4e-007
field max 2.4009066e-005
statistic Basic.rack[6].node[4].app 	hops
field count 20107
field mean 3.256179439996
field stddev 0.82773168634693
field sum 65472
field sqrsum 226964
field min 2
field max 4
statistic Basic.rack[6].node[5].app 	throughput
field count 19968
field mean 9984.5
field stddev 5764.4094233495
field sum 199370496
field sqrsum 2654086499584
field min 1
field max 19968
statistic Basic.rack[6].node[5].app 	"End-to-End Delay"
field count 19968
field mean 2.8330327233063e-006
field stddev 3.7097285410188e-006
field sum 0.056569997418981
field sqrsum 4.3505222197333e-007
field min 4e-007
field max 1.9358826e-005
statistic Basic.rack[6].node[5].app 	hops
field count 19968
field mean 3.25390625
field stddev 0.82683904676804
field sum 64974
field sqrsum 225070
field min 2
field max 4
statistic Basic.rack[6].node[6].app 	throughput
field count 20233
field mean 10117
field stddev 5840.9083340407
field sum 204697261
field sqrsum 2761161353629
field min 1
field max 20233
statistic Basic.rack[6].node[6].app 	"End-to-End Delay"
field count 20233
field mean 2.8244328938358e-006
field stddev 3.7106357012691e-006
field sum 0.05714675074098
field sqrsum 4.3997787433467e-007
field min 4e-007
field max 2.2851064e-005
statistic Basic.rack[6].node[6].app 	hops
field count 20233
field mean 3.2461819799338
field stddev 0.82967070429046
field sum 65680
field sqrsum 227136
field min 2
field max 4
statistic Basic.rack[6].node[7].app 	throughput
field count 20039
field mean 10020
field stddev 5784.9053579121
field sum 200790780
field sqrsum 2682497890540
field min 1
field max 20039
statistic Basic.rack[6].node[7].app 	"End-to-End Delay"
field count 20039
field mean 2.8533745138969e-006
field stddev 3.7210576872814e-006
field sum 0.057178771883981
field sqrsum 4.4060401494306e-007
field min 4e-007
field max 2.2719746e-005
statistic Basic.rack[6].node[7].app 	hops
field count 20039
field mean 3.2493138380159
field stddev 0.82663358835326
field sum 65113
field sqrsum 225265
field min 2
field max 4
statistic Basic.rack[6].node[8].app 	throughput
field count 19853
field mean 9927
field stddev 5731.2117828606
field sum 197080731
field sqrsum 2608494861939
field min 1
field max 19853
statistic Basic.rack[6].node[8].app 	"End-to-End Delay"
field count 19853
field mean 2.7907159343163e-006
field stddev 3.6760129635116e-006
field sum 0.055404083443981
field sqrsum 4.2287855009785e-007
field min 4e-007
field max 1.8792599e-005
statistic Basic.rack[6].node[8].app 	hops
field count 19853
field mean 3.2463607515237
field stddev 0.8315766496083
field sum 64450
field sqrsum 222956
field min 2
field max 4
statistic Basic.rack[6].node[9].app 	throughput
field count 19884
field mean 9942.5
field stddev 5740.1607120359
field sum 197696670
field sqrsum 2620732956410
field min 1
field max 19884
statistic Basic.rack[6].node[9].app 	"End-to-End Delay"
field count 19884
field mean 2.7809909285346e-006
field stddev 3.6798531475272e-006
field sum 0.055297223622981
field sqrsum 4.2302312667106e-007
field min 4e-007
field max 2.0897317e-005
statistic Basic.rack[6].node[9].app 	hops
field count 19884
field mean 3.2467310400322
field stddev 0.83242448271222
field sum 64558
field sqrsum 223380
field min 2
field max 4
statistic Basic.rack[6].eps.queue[0] 	dropsum
field count 0
field mean nan
field stddev nan
field sum 0
field sqrsum 0
field min nan
field max nan
statistic Basic.rack[6].eps.queue[1] 	dropsum
field count 0
field mean nan
field stddev nan
field sum 0
field sqrsum 0
field min nan
field max nan
statistic Basic.rack[6].eps.queue[2] 	dropsum
field count 0
field mean nan
field stddev nan
field sum 0
field sqrsum 0
field min nan
field max nan
statistic Basic.rack[6].eps.queue[3] 	dropsum
field count 0
field mean nan
field stddev nan
field sum 0
field sqrsum 0
field min nan
field max nan
statistic Basic.rack[7].node[0].app 	throughput
field count 19914
field mean 9957.5
field stddev 5748.8209660764
field sum 198293655
field sqrsum 2632612661665
field min 1
field max 19914
statistic Basic.rack[7].node[0].app 	"End-to-End Delay"
field count 19914
field mean 2.8185382485679e-006
field stddev 3.7033456639998e-006
field sum 0.056128370681981
field sqrsum 4.3130215682597e-007
field min 4e-007
field max 2.1797148e-005
statistic Basic.rack[7].node[0].app 	hops
field count 19914
field mean 3.2658431254394
field stddev 0.82443190583224
field sum 65036
field sqrsum 225932
field min 2
field max 4
statistic Basic.rack[7].node[1].app 	throughput
field count 20076
field mean 10038.5
field stddev 5795.5863378954
field sum 201532926
field sqrsum 2697383859226
field min 1
field max 20076
statistic Basic.rack[7].node[1].app 	"End-to-End Delay"
field count 20076
field mean 2.7998481451973e-006
field stddev 3.6894183912987e-006
field sum 0.056209751362981
field sqrsum 4.3063581502165e-007
field min 4e-007
field max 2.167799e-005
statistic Basic.rack[7].node[1].app 	hops
field count 20076
field mean 3.2570731221359
field stddev 0.82815480401314
field sum 65389
field sqrsum 226745
field min 2
field max 4
statistic Basic.rack[7].node[2].app 	throughput
field count 20224
field mean 10112.5
field stddev 5838.3102578286
field sum 204515200
field sqrsum 2757478441600
field min 1
field max 20224
statistic Basic.rack[7].node[2].app 	"End-to-End Delay"
field count 20224
field mean 2.7872829673151e-006
field stddev 3.6987458124757e-006
field sum 0.05637001073098
field sqrsum 4.3378438317448e-007
field min 4e-007
field max 2.4341471e-005
statistic Basic.rack[7].node[2].app 	hops
field count 20224
field mean 3.2439181170886
field stddev 0.83327405006165
field sum 65605
field sqrsum 226859
field min 2
field max 4
statistic Basic.rack[7].node[3].app 	throughput
field count 20073
field mean 10037
field stddev 5794.7203124914
field sum 201472701
field sqrsum 2696174842349
field min 1
field max 20073
statistic Basic.rack[7].node[3].app 	"End-to-End Delay"
field count 20073
field mean 2.8006088024202e-006
field stddev 3.6981161352282e-006
field sum 0.056216620490981
field sqrsum 4.3194669771444e-007
field min 4e-007
field max 1.7158004e-005
statistic Basic.rack[7].node[3].app 	hops
field count 20073
field mean 3.246649728491
field stddev 0.83132658186987
field sum 65170
field sqrsum 225456
field min 2
field max 4
statistic Basic.rack[7].node[4].app 	throughput
field count 20048
field mean 10024.5
field stddev 5787.5034341243
field sum 200971176
field sqrsum 2686113748024
field min 1
field max 20048
statistic Basic.rack[7].node[4].app 	"End-to-End Delay"
field count 20048
field mean 2.8060697560844e-006
field stddev 3.6918348490047e-006
field sum 0.056256086469981
field sqrsum 4.3109198717955e-007
field min 4e-007
field max 2.1584047e-005
statistic Basic.rack[7].node[4].app 	hops
field count 20048
field mean 3.2421189146049
field stddev 0.83181232668214
field sum 64998
field sqrsum 224602
field min 2
field max 4
statistic Basic.rack[7].node[5].app 	throughput
field count 19935
field mean 9968
field stddev 5754.8831439048
field sum 198712080
field sqrsum 2640949780560
field min 1
field max 19935
statistic Basic.rack[7].node[5].app 	"End-to-End Delay"
field count 19935
field mean 2.8351874827681e-006
field stddev 3.7179301352861e-006
field sum 0.056519462468981
field sqrsum 4.3579104404581e-007
field min 4e-007
field max 1.9900695e-005
statistic Basic.rack[7].node[5].app 	hops
field count 19935
field mean 3.2462001504891
field stddev 0.82906618584626
field sum 64713
field sqrsum 223773
field min 2
field max 4
statistic Basic.rack[7].node[6].app 	throughput
field count 19793
field mean 9897
field stddev 5713.8912747794
field sum 195891321
field sqrsum 2584916574809
field min 1
field max 19793
statistic Basic.rack[7].node[6].app 	"End-to-End Delay"
field count 19793
field mean 2.8083697302572e-006
field stddev 3.6917585911105e-006
field sum 0.055586062070981
field sqrsum 4.2585299509413e-007
field min 4e-007
field max 2.2836444e-005
statistic Basic.rack[7].node[6].app 	hops
field count 19793
field mean 3.2539786793311
field stddev 0.82834075254958
field sum 64406
field sqrsum 223156
field min 2
field max 4
statistic Basic.rack[7].node[7].app 	throughput
field count 20099
field mean 10050
field stddev 5802.2258659932
field sum 201994950
field sqrsum 2706664998350
field min 1
field max 20099
statistic Basic.rack[7].node[7].app 	"End-to-End Delay"
field count 20099
field mean 2.8312272611563e-006
field stddev 3.7214033633883e-006
field sum 0.056904836721981
field sqrsum 4.3944457149299e-007
field min 4e-007
field max 2.3462081e-005
statistic Basic.rack[7].node[7].app 	hops
field count 20099
field mean 3.248470073138
field stddev 0.82890909053024
field sum 65291
field sqrsum 225905
field min 2
field max 4
statistic Basic.rack[7].node[8].app 	throughput
field count 19752
field mean 9876.5
field stddev 5702.0555942572
field sum 195080628
field sqrsum 2568886736380
field min 1
field max 19752
statistic Basic.rack[7].node[8].app 	"End-to-End Delay"
field count 19752
field mean 2.8476721572996e-006
field stddev 3.7210628540351e-006
field sum 0.056247220450981
field sqrsum 4.3365208799519e-007
field min 4e-007
field max 2.3382151e-005
statistic Basic.rack[7].node[8].app 	hops
field count 19752
field mean 3.2521263669502
field stddev 0.82633023928123
field sum 64236
field sqrsum 222390
field min 2
field max 4
statistic Basic.rack[7].node[9].app 	throughput
field count 20419
field mean 10210
field stddev 5894.6019090916
field sum 208477990
field sqrsum 2838010877870
field min 1
field max 20419
statistic Basic.rack[7].node[9].app 	"End-to-End Delay"
field count 20419
field mean 2.810453079141e-006
field stddev 3.7048764115591e-006
field sum 0.05738664142298
field sqrsum 4.4154216124334e-007
field min 4e-007
field max 2.219817e-005
statistic Basic.rack[7].node[9].app 	hops
field count 20419
field mean 3.2515304373378
field stddev 0.8292378451043
field sum 66393
field sqrsum 229919
field min 2
field max 4
statistic Basic.rack[7].eps.queue[0] 	dropsum
field count 0
field mean nan
field stddev nan
field sum 0
field sqrsum 0
field min nan
field max nan
statistic Basic.rack[7].eps.queue[1] 	dropsum
field count 0
field mean nan
field stddev nan
field sum 0
field sqrsum 0
field min nan
field max nan
statistic Basic.rack[7].eps.queue[2] 	dropsum
field count 0
field mean nan
field stddev nan
field sum 0
field sqrsum 0
field min nan
field max nan
statistic Basic.rack[7].eps.queue[3] 	dropsum
field count 0
field mean nan
field stddev nan
field sum 0
field sqrsum 0
field min nan
field max nan
statistic Basic.rack[8].node[0].app 	throughput
field count 19849
field mean 9925
field stddev 5730.0570823218
field sum 197001325
field sqrsum 2606918533725
field min 1
field max 19849
statistic Basic.rack[8].node[0].app 	"End-to-End Delay"
field count 19849
field mean 4.8753026465309e-006
field stddev 4.3229444093888e-006
field sum 0.096769882230992
field sqrsum 8.4269887732683e-007
field min 4e-007
field max 2.4358695e-005
statistic Basic.rack[8].node[0].app 	hops
field count 19849
field mean 2.9982870673586
field stddev 0.70831496148106
field sum 59513
field sqrsum 188395
field min 2
field max 4
statistic Basic.rack[8].node[1].app 	throughput
field count 19958
field mean 9979.5
field stddev 5761.5226720026
field sum 199170861
field sqrsum 2650101086179
field min 1
field max 19958
statistic Basic.rack[8].node[1].app 	"End-to-End Delay"
field count 19958
field mean 4.8690871947586e-006
field stddev 4.3285481407728e-006
field sum 0.097177242232991
field sqrsum 8.4708538377106e-007
field min 4e-007
field max 2.4933469e-005
statistic Basic.rack[8].node[1].app 	hops
field count 19958
field mean 2.9909309550055
field stddev 0.70883579815681
field sum 59693
field sqrsum 188565
field min 2
field max 4
statistic Basic.rack[8].node[2].app 	throughput
field count 19938
field mean 9969.5
field stddev 5755.7491693089
field sum 198771891
field sqrsum 2642142232469
field min 1
field max 19938
statistic Basic.rack[8].node[2].app 	"End-to-End Delay"
field count 19938
field mean 4.9075381510679e-006
field stddev 4.324697273466e-006
field sum 0.097846495655992
field sqrsum 8.5306725111262e-007
field min 4e-007
field max 2.3422969e-005
statistic Basic.rack[8].node[2].app 	hops
field count 19938
field mean 2.9987461129501
field stddev 0.70584546380232
field sum 59789
field sqrsum 189225
field min 2
field max 4
statistic Basic.rack[8].node[3].app 	throughput
field count 20038
field mean 10019.5
field stddev 5784.6166827774
field sum 200770741
field sqrsum 2682096329019
field min 1
field max 20038
statistic Basic.rack[8].node[3].app 	"End-to-End Delay"
field count 20038
field mean 4.8658996634391e-006
field stddev 4.3310335071302e-006
field sum 0.097502897455992
field sqrsum 8.5029038120902e-007
field min 4e-007
field max 2.4354368e-005
statistic Basic.rack[8].node[3].app 	hops
field count 20038
field mean 2.9983032238746
field stddev 0.70934213035986
field sum 60080
field sqrsum 190220
field min 2
field max 4
statistic Basic.rack[8].node[4].app 	throughput
field count 20298
field mean 10149.5
field stddev 5859.6722177951
field sum 206014551
field sqrsum 2787857575649
field min 1
field max 20298
statistic Basic.rack[8].node[4].app 	"End-to-End Delay"
field count 20298
field mean 4.8957958099316e-006
field stddev 4.3344380792173e-006
field sum 0.099374863349992
field sqrsum 8.6784595283117e-007
field min 4e-007
field max 2.3306366e-005
statistic Basic.rack[8].node[4].app 	hops
field count 20298
field mean 2.9996058724998
field stddev 0.7071589264112
field sum 60886
field sqrsum 192784
field min 2
field max 4
statistic Basic.rack[8].node[5].app 	throughput
field count 20076
field mean 10038.5
field stddev 5795.5863378954
field sum 201532926
field sqrsum 2697383859226
field min 1
field max 20076
statistic Basic.rack[8].node[5].app 	"End-to-End Delay"
field count 20076
field mean 4.8793963354748e-006
field stddev 4.3357620923147e-006
field sum 0.097958760830992
field sqrsum 8.5536618951854e-007
field min 4e-007
field max 2.3354259e-005
statistic Basic.rack[8].node[5].app 	hops
field count 20076
field mean 3.0004981071927
field stddev 0.70874259481142
field sum 60238
field sqrsum 190828
field min 2
field max 4
statistic Basic.rack[8].node[6].app 	throughput
field count 20144
field mean 10072.5
field stddev 5815.2162470539
field sum 202900440
field sqrsum 2724885275720
field min 1
field max 20144
statistic Basic.rack[8].node[6].app 	"End-to-End Delay"
field count 20144
field mean 4.9101953072375e-006
field stddev 4.3278746014937e-006
field sum 0.098910974268992
field sqrsum 8.6296063430995e-007
field min 4e-007
field max 2.9281702e-005
statistic Basic.rack[8].node[6].app 	hops
field count 20144
field mean 2.9971703733122
field stddev 0.70553723404599
field sum 60375
field sqrsum 190981
field min 2
field max 4
statistic Basic.rack[8].node[7].app 	throughput
field count 20011
field mean 10006
field stddev 5776.8224541409
field sum 200230066
field sqrsum 2671269310506
field min 1
field max 20011
statistic Basic.rack[8].node[7].app 	"End-to-End Delay"
field count 20011
field mean 4.9051245012739e-006
field stddev 4.3379182598245e-006
field sum 0.098156446394993
field sqrsum 8.5800846209672e-007
field min 4e-007
field max 2.2883876e-005
statistic Basic.rack[8].node[7].app 	hops
field count 20011
field mean 2.9981010444256
field stddev 0.70664469050938
field sum 59995
field sqrsum 189863
field min 2
field max 4
statistic Basic.rack[8].node[8].app 	throughput
field count 19848
field mean 9924.5
field stddev 5729.7684071872
field sum 196981476
field sqrsum 2606524550924
field min 1
field max 19848
statistic Basic.rack[8].node[8].app 	"End-to-End Delay"
field count 19848
field mean 4.9133500387441e-006
field stddev 4.3281107470446e-006
field sum 0.097520171568992
field sqrsum 8.5093551250678e-007
field min 4e-007
field max 2.3078923e-005
statistic Basic.rack[8].node[8].app 	hops
field count 19848
field mean 3.0011588069327
field stddev 0.70559001943751
field sum 59567
field sqrsum 188651
field min 2
field max 4
statistic Basic.rack[8].node[9].app 	throughput
field count 19956
field mean 9978.5
field stddev 5760.9453217332
field sum 199130946
field sqrsum 2649304482566
field min 1
field max 19956
statistic Basic.rack[8].node[9].app 	"End-to-End Delay"
field count 19956
field mean 4.8957608561331e-006
field stddev 4.3453822011726e-006
field sum 0.097699803644992
field sqrsum 8.5511209823105e-007
field min 4e-007
field max 2.7184308e-005
statistic Basic.rack[8].node[9].app 	hops
field count 19956
field mean 2.9994487873321
field stddev 0.70786801054563
field sum 59857
field sqrsum 189537
field min 2
field max 4
statistic Basic.rack[8].eps.queue[0] 	dropsum
field count 0
field mean nan
field stddev nan
field sum 0
field sqrsum 0
field min nan
field max nan
statistic Basic.rack[8].eps.queue[1] 	dropsum
field count 0
field mean nan
field stddev nan
field sum 0
field sqrsum 0
field min nan
field max nan
statistic Basic.rack[8].eps.queue[2] 	dropsum
field count 0
field mean nan
field stddev nan
field sum 0
field sqrsum 0
field min nan
field max nan
statistic Basic.rack[8].eps.queue[3] 	dropsum
field count 0
field mean nan
field stddev nan
field sum 0
field sqrsum 0
field min nan
field max nan
statistic Basic.rack[9].node[0].app 	throughput
field count 19971
field mean 9986
field stddev 5765.2754487535
field sum 199430406
field sqrsum 2655282902286
field min 1
field max 19971
statistic Basic.rack[9].node[0].app 	"End-to-End Delay"
field count 19971
field mean 4.8535867582991e-006
field stddev 4.3252071728448e-006
field sum 0.096930981149992
field sqrsum 8.4405004582647e-007
field min 4e-007
field max 2.3464759e-005
statistic Basic.rack[9].node[0].app 	hops
field count 19971
field mean 3.00180261379
field stddev 0.71031935470863
field sum 59949
field sqrsum 190031
field min 2
field max 4
statistic Basic.rack[9].node[1].app 	throughput
field count 19870
field mean 9935.5
field stddev 5736.1192601503
field sum 197418385
field sqrsum 2615201346095
field min 1
field max 19870
statistic Basic.rack[9].node[1].app 	"End-to-End Delay"
field count 19870
field mean 4.9030015513836e-006
field stddev 4.3277403652874e-006
field sum 0.097422640825992
field sqrsum 8.497965493928e-007
field min 4e-007
field max 2.2906861e-005
statistic Basic.rack[9].node[1].app 	hops
field count 19870
field mean 3.0013588324107
field stddev 0.70641115869288
field sum 59637
field sqrsum 188907
field min 2
field max 4
statistic Basic.rack[9].node[2].app 	throughput
field count 20228
field mean 10114.5
field stddev 5839.4649583673
field sum 204596106
field sqrsum 2759114886814
field min 1
field max 20228
statistic Basic.rack[9].node[2].app 	"End-to-End Delay"
field count 20228
field mean 4.8910941129618e-006
field stddev 4.3364550679068e-006
field sum 0.098937051716992
field sqrsum 8.6427598158647e-007
field min 4e-007
field max 2.2912202e-005
statistic Basic.rack[9].node[2].app 	hops
field count 20228
field mean 3.0053885702986
field stddev 0.70783747961988
field sum 60793
field sqrsum 192841
field min 2
field max 4
statistic Basic.rack[9].node[3].app 	throughput
field count 20020
field mean 10010.5
field stddev 5779.4205303531
field sum 200410210
field sqrsum 2674875072870
field min 1
field max 20020
statistic Basic.rack[9].node[3].app 	"End-to-End Delay"
field count 20020
field mean 4.9015992629367e-006
field stddev 4.3252028624101e-006
field sum 0.098130017243992
field sqrsum 8.5549705643134e-007
field min 4e-007
field max 2.478434e-005
statistic Basic.rack[9].node[3].app 	hops
field count 20020
field mean 3.0017982017982
field stddev 0.7064153818255
field sum 60096
field sqrsum 190386
field min 2
field max 4
statistic Basic.rack[9].node[4].app 	throughput
field count 19963
field mean 9982
field stddev 5762.966047676
field sum 199270666
field sqrsum 2652093293794
field min 1
field max 19963
statistic Basic.rack[9].node[4].app 	"End-to-End Delay"
field count 19963
field mean 4.8853521993684e-006
field stddev 4.3333002661019e-006
field sum 0.097526285955992
field sqrsum 8.5128653484985e-007
field min 4e-007
field max 2.4188743e-005
statistic Basic.rack[9].node[4].app 	hops
field count 19963
field mean 2.9931373040124
field stddev 0.70792314934936
field sum 59752
field sqrsum 188850
field min 2
field max 4
statistic Basic.rack[9].node[5].app 	throughput
field count 20243
field mean 10122
field stddev 5843.7950853876
field sum 204899646
field sqrsum 2765257322534
field min 1
field max 20243
statistic Basic.rack[9].node[5].app 	"End-to-End Delay"
field count 20243
field mean 4.898427238897e-006
field stddev 4.3306188289885e-006
field sum 0.099158862596993
field sqrsum 8.6534619314791e-007
field min 4e-007
field max 2.3133101e-005
statistic Basic.rack[9].node[5].app 	hops
field count 20243
field mean 3.0016795929457
field stddev 0.70693010097411
field sum 60763
field sqrsum 192507
field min 2
field max 4
statistic Basic.rack[9].node[6].app 	throughput
field count 20128
field mean 10064.5
field stddev 5810.597444899
field sum 202578256
field sqrsum 2718397617264
field min 1
field max 20128
statistic Basic.rack[9].node[6].app 	"End-to-End Delay"
field count 20128
field mean 4.8995990576308e-006
field stddev 4.3321052300552e-006
field sum 0.098619129831992
field sqrsum 8.6092033631161e-007
field min 4e-007
field max 2.1157884e-005
statistic Basic.rack[9].node[6].app 	hops
field count 20128
field mean 2.9983108108108
field stddev 0.70691150912218
field sum 60350
field sqrsum 191006
field min 2
field max 4
statistic Basic.rack[9].node[7].app 	throughput
field count 20069
field mean 10035
field stddev 5793.5656119526
field sum 201392415
field sqrsum 2694563381895
field min 1
field max 20069
statistic Basic.rack[9].node[7].app 	"End-to-End Delay"
field count 20069
field mean 4.8829794681843e-006
field stddev 4.3282330758267e-006
field sum 0.097996514946992
field sqrsum 8.5446088651938e-007
field min 4e-007
field max 2.3082501e-005
statistic Basic.rack[9].node[7].app 	hops
field count 20069
field mean 3.0011958742339
field stddev 0.70809167905202
field sum 60231
field sqrsum 190827
field min 2
field max 4
statistic Basic.rack[9].node[8].app 	throughput
field count 19900
field mean 9950.5
field stddev 5744.7795141908
field sum 198014950
field sqrsum 2627064341650
field min 1
field max 19900
statistic Basic.rack[9].node[8].app 	"End-to-End Delay"
field count 19900
field mean 4.8493221361303e-006
field stddev 4.3302882624916e-006
field sum 0.096501510508992
field sqrsum 8.4110094876665e-007
field min 4e-007
field max 2.103832e-005
statistic Basic.rack[9].node[8].app 	hops
field count 19900
field mean 2.9980904522613
field stddev 0.71094928704337
field sum 59662
field sqrsum 188930
field min 2
field max 4
statistic Basic.rack[9].node[9].app 	throughput
field count 20365
field mean 10183
field stddev 5879.0134518188
field sum 207376795
field sqrsum 2815554745715
field min 1
field max 20365
statistic Basic.rack[9].node[9].app 	"End-to-End Delay"
field count 20365
field mean 4.8923385085191e-006
field stddev 4.3313530145341e-006
field sum 0.099632473725992
field sqrsum 8.6947703193185e-007
field min 4e-007
field max 2.4650114e-005
statistic Basic.rack[9].node[9].app 	hops
field count 20365
field mean 2.9982322612325
field stddev 0.70724345172652
field sum 61059
field sqrsum 193255
field min 2
field max 4
statistic Basic.rack[9].eps.queue[0] 	dropsum
field count 0
field mean nan
field stddev nan
field sum 0
field sqrsum 0
field min nan
field max nan
statistic Basic.rack[9].eps.queue[1] 	dropsum
field count 0
field mean nan
field stddev nan
field sum 0
field sqrsum 0
field min nan
field max nan
statistic Basic.rack[9].eps.queue[2] 	dropsum
field count 0
field mean nan
field stddev nan
field sum 0
field sqrsum 0
field min nan
field max nan
statistic Basic.rack[9].eps.queue[3] 	dropsum
field count 0
field mean nan
field stddev nan
field sum 0
field sqrsum 0
field min nan
field max nan
statistic Basic.rack[10].node[0].app 	throughput
field count 20095
field mean 10048
field stddev 5801.0711654544
field sum 201914560
field sqrsum 2705049360320
field min 1
field max 20095
statistic Basic.rack[10].node[0].app 	"End-to-End Delay"
field count 20095
field mean 2.8138092642936e-006
field stddev 3.7106578824087e-006
field sum 0.056543497165981
field sqrsum 4.3577653886734e-007
field min 4e-007
field max 2.7314775e-005
statistic Basic.rack[10].node[0].app 	hops
field count 20095
field mean 3.2475740233889
field stddev 0.83025666445762
field sum 65260
field sqrsum 225788
field min 2
field max 4
statistic Basic.rack[10].node[1].app 	throughput
field count 19879
field mean 9940
field stddev 5738.7173363624
field sum 197597260
field sqrsum 2618756486780
field min 1
field max 19879
statistic Basic.rack[10].node[1].app 	"End-to-End Delay"
field count 19879
field mean 2.8782897057186e-006
field stddev 3.7592494909421e-006
field sum 0.057217521059981
field sqrsum 4.4560363783497e-007
field min 4e-007
field max 2.4086354e-005
statistic Basic.rack[10].node[1].app 	hops
field count 19879
field mean 3.241963881483
field stddev 0.82769965293438
field sum 64447
field sqrsum 222553
field min 2
field max 4
statistic Basic.rack[10].node[2].app 	throughput
field count 20012
field mean 10006.5
field stddev 5777.1111292756
field sum 200250078
field sqrsum 2671669790650
field min 1
field max 20012
statistic Basic.rack[10].node[2].app 	"End-to-End Delay"
field count 20012
field mean 2.8281805143404e-006
field stddev 3.7099667403284e-006
field sum 0.056597548452981
field sqrsum 4.3549655036637e-007
field min 4e-007
field max 2.1709836e-005
statistic Basic.rack[10].node[2].app 	hops
field count 20012
field mean 3.2625424745153
field stddev 0.82465511646459
field sum 65290
field sqrsum 226620
field min 2
field max 4
statistic Basic.rack[10].node[3].app 	throughput
field count 20202
field mean 10101.5
field stddev 5831.9594048656
field sum 204070503
field sqrsum 2748489557905
field min 1
field max 20202
statistic Basic.rack[10].node[3].app 	"End-to-End Delay"
field count 20202
field mean 2.8317542475488e-006
field stddev 3.7168302854634e-006
field sum 0.05720709930898
field sqrsum 4.4106977417847e-007
field min 4e-007
field max 2.1662862e-005
statistic Basic.rack[10].node[3].app 	hops
field count 20202
field mean 3.2552717552718
field stddev 0.82671604001882
field sum 65763
field sqrsum 227883
field min 2
field max 4
statistic Basic.rack[10].node[4].app 	throughput
field count 19618
field mean 9809.5
field stddev 5663.373126209
field sum 192442771
field sqrsum 2516959001909
field min 1
field max 19618
statistic Basic.rack[10].node[4].app 	"End-to-End Delay"
field count 19618
field mean 2.8105617266786e-006
field stddev 3.6961805252467e-006
field sum 0.055137599953982
field sqrsum 4.2297018720383e-007
field min 4e-007
field max 2.0430571e-005
statistic Basic.rack[10].node[4].app 	hops
field count 19618
field mean 3.2480375165664
field stddev 0.83002758025421
field sum 63720
field sqrsum 220480
field min 2
field max 4
statistic Basic.rack[10].node[5].app 	throughput
field count 19941
field mean 9971
field stddev 5756.6151947129
field sum 198831711
field sqrsum 2643335043271
field min 1
field max 19941
statistic Basic.rack[10].node[5].app 	"End-to-End Delay"
field count 19941
field mean 2.848261245423e-006
field stddev 3.7327902032137e-006
field sum 0.056797177494981
field sqrsum 4.3961163017046e-007
field min 4e-007
field max 2.3421741e-005
statistic Basic.rack[10].node[5].app 	hops
field count 19941
field mean 3.2500376109523
field stddev 0.827296126082
field sum 64809
field sqrsum 224279
field min 2
field max 4
statistic Basic.rack[10].node[6].app 	throughput
field count 20069
field mean 10035
field stddev 5793.5656119526
field sum 201392415
field sqrsum 2694563381895
field min 1
field max 20069
statistic Basic.rack[10].node[6].app 	"End-to-End Delay"
field count 20069
field mean 2.8474032096756e-006
field stddev 3.7142408890953e-006
field sum 0.057144535014981
field sqrsum 4.3956333986762e-007
field min 4e-007
field max 2.3713645e-005
statistic Basic.rack[10].node[6].app 	hops
field count 20069
field mean 3.2434600627834
field stddev 0.82848595891302
field sum 65093
field sqrsum 224901
field min 2
field max 4
statistic Basic.rack[10].node[7].app 	throughput
field count 20014
field mean 10007.5
field stddev 5777.688479545
field sum 200290105
field sqrsum 2672470871015
field min 1
field max 20014
statistic Basic.rack[10].node[7].app 	"End-to-End Delay"
field count 20014
field mean 2.8266196888668e-006
field stddev 3.7057839729855e-006
field sum 0.056571966452981
field sqrsum 4.3474265815575e-007
field min 4e-007
field max 2.2548804e-005
statistic Basic.rack[10].node[7].app 	hops
field count 20014
field mean 3.2426801239133
field stddev 0.83028130373356
field sum 64899
field sqrsum 224243
field min 2
field max 4
statistic Basic.rack[10].node[8].app 	throughput
field count 20010
field mean 10005.5
field stddev 5776.5337790062
field sum 200210055
field sqrsum 2670868870385
field min 1
field max 20010
statistic Basic.rack[10].node[8].app 	"End-to-End Delay"
field count 20010
field mean 2.8281392075952e-006
field stddev 3.7136588363131e-006
field sum 0.056591065543981
field sqrsum 4.3599677167262e-007
field min 4e-007
field max 2.2160494e-005
statistic Basic.rack[10].node[8].app 	hops
field count 20010
field mean 3.2581209395302
field stddev 0.82612538391508
field sum 65195
field sqrsum 226069
field min 2
field max 4
statistic Basic.rack[10].node[9].app 	throughput
field count 20058
field mean 10029.5
field stddev 5790.3901854711
field sum 201171711
field sqrsum 2690135176729
field min 1
field max 20058
statistic Basic.rack[10].node[9].app 	"End-to-End Delay"
field count 20058
field mean 2.8215040975162e-006
field stddev 3.7185981329679e-006
field sum 0.056593729187981
field sqrsum 4.3702707469611e-007
field min 4e-007
field max 2.2049912e-005
statistic Basic.rack[10].node[9].app 	hops
field count 20058
field mean 3.2497257951939
field stddev 0.82930458711728
field sum 65183
field sqrsum 225621
field min 2
field max 4
statistic Basic.rack[10].eps.queue[0] 	dropsum
field count 0
field mean nan
field stddev nan
field sum 0
field sqrsum 0
field min nan
field max nan
statistic Basic.rack[10].eps.queue[1] 	dropsum
field count 0
field mean nan
field stddev nan
field sum 0
field sqrsum 0
field min nan
field max nan
statistic Basic.rack[10].eps.queue[2] 	dropsum
field count 0
field mean nan
field stddev nan
field sum 0
field sqrsum 0
field min nan
field max nan
statistic Basic.rack[10].eps.queue[3] 	dropsum
field count 0
field mean nan
field stddev nan
field sum 0
field sqrsum 0
field min nan
field max nan
statistic Basic.rack[11].node[0].app 	throughput
field count 20037
field mean 10019
field stddev 5784.3280076427
field sum 200750703
field sqrsum 2681694807575
field min 1
field max 20037
statistic Basic.rack[11].node[0].app 	"End-to-End Delay"
field count 20037
field mean 2.8490563290902e-006
field stddev 3.724676222728e-006
field sum 0.05708654166598
field sqrsum 4.4060646778915e-007
field min 4e-007
field max 2.362928e-005
statistic Basic.rack[11].node[0].app 	hops
field count 20037
field mean 3.2561760742626
field stddev 0.82515261148618
field sum 65244
field sqrsum 226088
field min 2
field max 4
statistic Basic.rack[11].node[1].app 	throughput
field count 19946
field mean 9973.5
field stddev 5758.0585703864
field sum 198931431
field sqrsum 2645323858961
field min 1
field max 19946
statistic Basic.rack[11].node[1].app 	"End-to-End Delay"
field count 19946
field mean 2.8299065671804e-006
field stddev 3.7278805434238e-006
field sum 0.056445316388981
field sqrsum 4.3691249832247e-007
field min 4e-007
field max 2.57454e-005
statistic Basic.rack[11].node[1].app 	hops
field count 19946
field mean 3.2428055750526
field stddev 0.83075420523291
field sum 64681
field sqrsum 223513
field min 2
field max 4
statistic Basic.rack[11].node[2].app 	throughput
field count 20165
field mean 10083
field stddev 5821.2784248823
field sum 203323695
field sqrsum 2733415981015
field min 1
field max 20165
statistic Basic.rack[11].node[2].app 	"End-to-End Delay"
field count 20165
field mean 2.7850388301999e-006
field stddev 3.6938100240785e-006
field sum 0.056160308010981
field sqrsum 4.3153094253523e-007
field min 4e-007
field max 1.9556759e-005
statistic Basic.rack[11].node[2].app 	hops
field count 20165
field mean 3.2480535581453
field stddev 0.83221549346419
field sum 65497
field sqrsum 226703
field min 2
field max 4
statistic Basic.rack[11].node[3].app 	throughput
field count 20147
field mean 10074
field stddev 5816.082272458
field sum 202960878
field sqrsum 2726102859670
field min 1
field max 20147
statistic Basic.rack[11].node[3].app 	"End-to-End Delay"
field count 20147
field mean 2.7994032805371e-006
field stddev 3.7104635335245e-006
field sum 0.056399577892981
field sqrsum 4.3524601683332e-007
field min 4e-007
field max 2.3380867e-005
statistic Basic.rack[11].node[3].app 	hops
field count 20147
field mean 3.2541321288529
field stddev 0.82982846627752
field sum 65561
field sqrsum 227217
field min 2
field max 4
statistic Basic.rack[11].node[4].app 	throughput
field count 19896
field mean 9948.5
field stddev 5743.6248136521
field sum 197935356
field sqrsum 2625480540436
field min 1
field max 19896
statistic Basic.rack[11].node[4].app 	"End-to-End Delay"
field count 19896
field mean 2.804660806342e-006
field stddev 3.6969343553116e-006
field sum 0.055801531402981
field sqrsum 4.2841577162858e-007
field min 4e-007
field max 2.0855266e-005
statistic Basic.rack[11].node[4].app 	hops
field count 19896
[...]
field stddev 4.3150435536359e-006
field sum 0.097513266964992
field sqrsum 8.4792398656607e-007
field min 4e-007
field max 2.1200022e-005
statistic Basic.rack[13].node[1].app 	hops
field count 19979
field mean 3.0047549927424
field stddev 0.70779834001191
field sum 60032
field sqrsum 190390
field min 2
field max 4
statistic Basic.rack[13].node[2].app 	throughput
field count 19939
field mean 9970
field stddev 5756.0378444436
field sum 198791830
field sqrsum 2642539796190
field min 1
field max 19939
statistic Basic.rack[13].node[2].app 	"End-to-End Delay"
field count 19939
field mean 4.834246764381e-006
field stddev 4.3037335726279e-006
field sum 0.096390046234992
field sqrsum 8.3526735080816e-007
field min 4e-007
field max 1.9682278e-005
statistic Basic.rack[13].node[2].app 	hops
field count 19939
field mean 3.0075229449822
field stddev 0.71113380097531
field sum 59967
field sqrsum 190435
field min 2
field max 4
statistic Basic.rack[13].node[3].app 	throughput
field count 20107
field mean 10054
field stddev 5804.5352670706
field sum 202155778
field sqrsum 2709898204090
field min 1
field max 20107
statistic Basic.rack[13].node[3].app 	"End-to-End Delay"
field count 20107
field mean 4.8753538877999e-006
field stddev 4.3296900708415e-006
field sum 0.098028740621992
field sqrsum 8.5483622280604e-007
field min 4e-007
field max 2.2808128e-005
statistic Basic.rack[13].node[3].app 	hops
field count 20107
field mean 3.0034316407221
field stddev 0.70885474048709
field sum 60390
field sqrsum 191480
field min 2
field max 4
statistic Basic.rack[13].node[4].app 	throughput
field count 19961
field mean 9981
field stddev 5762.3886974067
field sum 199230741
field sqrsum 2651296290981
field min 1
field max 19961
statistic Basic.rack[13].node[4].app 	"End-to-End Delay"
field count 19961
field mean 4.8449653991279e-006
field stddev 4.3297329658784e-006
field sum 0.096710354331992
field sqrsum 8.4274020808994e-007
field min 4e-007
field max 2.2191469e-005
statistic Basic.rack[13].node[4].app 	hops
field count 19961
field mean 2.9960422824508
field stddev 0.71122855618567
field sum 59804
field sqrsum 189272
field min 2
field max 4
statistic Basic.rack[13].node[5].app 	throughput
field count 20163
field mean 10082
field stddev 5820.7010746129
field sum 203283366
field sqrsum 2732602766894
field min 1
field max 20163
statistic Basic.rack[13].node[5].app 	"End-to-End Delay"
field count 20163
field mean 4.9486347387786e-006
field stddev 4.329284562107e-006
field sum 0.099779322237993
field sqrsum 8.7166183481347e-007
field min 4e-007
field max 2.511202e-005
statistic Basic.rack[13].node[5].app 	hops
field count 20163
field mean 3.0030749392452
field stddev 0.70263188513169
field sum 60551
field sqrsum 191793
field min 2
field max 4
statistic Basic.rack[13].node[6].app 	throughput
field count 20221
field mean 10111
field stddev 5837.4442324246
field sum 204454531
field sqrsum 2756251532411
field min 1
field max 20221
statistic Basic.rack[13].node[6].app 	"End-to-End Delay"
field count 20221
field mean 4.9427432418769e-006
field stddev 4.3468181901873e-006
field sum 0.099947211093992
field sqrsum 8.7606683199342e-007
field min 4e-007
field max 2.4993396e-005
statistic Basic.rack[13].node[6].app 	hops
field count 20221
field mean 2.9969338806192
field stddev 0.70380518322519
field sum 60601
field sqrsum 191633
field min 2
field max 4
statistic Basic.rack[13].node[7].app 	throughput
field count 20064
field mean 10032.5
field stddev 5792.1222362792
field sum 201292080
field sqrsum 2692549959440
field min 1
field max 20064
statistic Basic.rack[13].node[7].app 	"End-to-End Delay"
field count 20064
field mean 4.9121610959924e-006
field stddev 4.3330952661964e-006
field sum 0.098557600229992
field sqrsum 8.6082797130173e-007
field min 4e-007
field max 2.3867341e-005
statistic Basic.rack[13].node[7].app 	hops
field count 20064
field mean 2.9957137161085
field stddev 0.7057708654786
field sum 60106
field sqrsum 190054
field min 2
field max 4
statistic Basic.rack[13].node[8].app 	throughput
field count 20198
field mean 10099.5
field stddev 5830.8047043268
field sum 203989701
field sqrsum 2746857317099
field min 1
field max 20198
statistic Basic.rack[13].node[8].app 	"End-to-End Delay"
field count 20198
field mean 4.8878928608769e-006
field stddev 4.3213965422549e-006
field sum 0.098725660003992
field sqrsum 8.5972868043799e-007
field min 4e-007
field max 2.7731971e-005
statistic Basic.rack[13].node[8].app 	hops
field count 20198
field mean 3.0077235369839
field stddev 0.70746712680992
field sum 60750
field sqrsum 192828
field min 2
field max 4
statistic Basic.rack[13].node[9].app 	throughput
field count 19811
field mean 9906
field stddev 5719.0874272037
field sum 196247766
field sqrsum 2591975077406
field min 1
field max 19811
statistic Basic.rack[13].node[9].app 	"End-to-End Delay"
field count 19811
field mean 4.9472250500223e-006
field stddev 4.3480837873185e-006
field sum 0.098009475465992
field sqrsum 8.5939947639766e-007
field min 4e-007
field max 2.1654711e-005
statistic Basic.rack[13].node[9].app 	hops
field count 19811
field mean 2.9912170006562
field stddev 0.70336580865375
field sum 59259
field sqrsum 187057
field min 2
field max 4
statistic Basic.rack[13].eps.queue[0] 	dropsum
field count 0
field mean nan
field stddev nan
field sum 0
field sqrsum 0
field min nan
field max nan
statistic Basic.rack[13].eps.queue[1] 	dropsum
field count 0
field mean nan
field stddev nan
field sum 0
field sqrsum 0
field min nan
field max nan
statistic Basic.rack[13].eps.queue[2] 	dropsum
field count 0
field mean nan
field stddev nan
field sum 0
field sqrsum 0
field min nan
field max nan
statistic Basic.rack[13].eps.queue[3] 	dropsum
field count 0
field mean nan
field stddev nan
field sum 0
field sqrsum 0
field min nan
field max nan
statistic Basic.rack[14].node[0].app 	throughput
field count 20193
field mean 10097
field stddev 5829.3613286534
field sum 203888721
field sqrsum 2744817925009
field min 1
field max 20193
statistic Basic.rack[14].node[0].app 	"End-to-End Delay"
field count 20193
field mean 2.8058469676611e-006
field stddev 3.7140623106773e-006
field sum 0.056658467817981
field sqrsum 4.3750866477002e-007
field min 4e-007
field max 2.3222677e-005
statistic Basic.rack[14].node[0].app 	hops
field count 20193
field mean 3.2498390531372
field stddev 0.83042631422535
field sum 65624
field sqrsum 227192
field min 2
field max 4
statistic Basic.rack[14].node[1].app 	throughput
field count 19768
field mean 9884.5
field stddev 5706.6743964122
field sum 195396796
field sqrsum 2575134374484
field min 1
field max 19768
statistic Basic.rack[14].node[1].app 	"End-to-End Delay"
field count 19768
field mean 2.8367878216805e-006
field stddev 3.7153846930914e-006
field sum 0.056077621658981
field sqrsum 4.3194563110785e-007
field min 4e-007
field max 2.2587106e-005
statistic Basic.rack[14].node[1].app 	hops
field count 19768
field mean 3.247470659652
field stddev 0.82841031388442
field sum 64196
field sqrsum 222040
field min 2
field max 4
statistic Basic.rack[14].node[2].app 	throughput
field count 20025
field mean 10013
field stddev 5780.8639060265
field sum 200510325
field sqrsum 2676879675525
field min 1
field max 20025
statistic Basic.rack[14].node[2].app 	"End-to-End Delay"
field count 20025
field mean 2.8267629119591e-006
field stddev 3.7056739411792e-006
field sum 0.056605927311981
field sqrsum 4.3498149155385e-007
field min 4e-007
field max 2.024157e-005
statistic Basic.rack[14].node[2].app 	hops
field count 20025
field mean 3.2577777777778
field stddev 0.82610448323133
field sum 65237
field sqrsum 226193
field min 2
field max 4
statistic Basic.rack[14].node[3].app 	throughput
field count 19802
field mean 9901.5
field stddev 5716.4893509916
field sum 196069503
field sqrsum 2588444222105
field min 1
field max 19802
statistic Basic.rack[14].node[3].app 	"End-to-End Delay"
field count 19802
field mean 2.7947396710929e-006
field stddev 3.6916803938641e-006
field sum 0.055341434966982
field sqrsum 4.2452291404429e-007
field min 4e-007
field max 2.3420927e-005
statistic Basic.rack[14].node[3].app 	hops
field count 19802
field mean 3.2576002423998
field stddev 0.82860155351903
field sum 64507
field sqrsum 223733
field min 2
field max 4
statistic Basic.rack[14].node[4].app 	throughput
field count 19988
field mean 9994.5
field stddev 5770.1829260432
field sum 199770066
field sqrsum 2662069309494
field min 1
field max 19988
statistic Basic.rack[14].node[4].app 	"End-to-End Delay"
field count 19988
field mean 2.7987483586142e-006
field stddev 3.6962763162891e-006
field sum 0.055941382191981
field sqrsum 4.2963741175372e-007
field min 4e-007
field max 2.0767613e-005
statistic Basic.rack[14].node[4].app 	hops
field count 19988
field mean 3.2447968781269
field stddev 0.83193167716545
field sum 64857
field sqrsum 224281
field min 2
field max 4
statistic Basic.rack[14].node[5].app 	throughput
field count 19864
field mean 9932.5
field stddev 5734.3872093421
field sum 197299180
field sqrsum 2612833040740
field min 1
field max 19864
statistic Basic.rack[14].node[5].app 	"End-to-End Delay"
field count 19864
field mean 2.7997154152729e-006
field stddev 3.7099168275638e-006
field sum 0.055613547008981
field sqrsum 4.2908616505503e-007
field min 4e-007
field max 2.3792053e-005
statistic Basic.rack[14].node[5].app 	hops
field count 19864
field mean 3.2510068465566
field stddev 0.83051115118541
field sum 64578
field sqrsum 223644
field min 2
field max 4
statistic Basic.rack[14].node[6].app 	throughput
field count 19857
field mean 9929
field stddev 5732.3664833993
field sum 197160153
field sqrsum 2610071825465
field min 1
field max 19857
statistic Basic.rack[14].node[6].app 	"End-to-End Delay"
field count 19857
field mean 2.8687803181236e-006
field stddev 3.7328221648492e-006
field sum 0.056965370776981
field sqrsum 4.4009387035814e-007
field min 4e-007
field max 2.4126334e-005
statistic Basic.rack[14].node[6].app 	hops
field count 19857
field mean 3.2451528428262
field stddev 0.8267716540285
field sum 64439
field sqrsum 222687
field min 2
field max 4
statistic Basic.rack[14].node[7].app 	throughput
field count 19969
field mean 9985
field stddev 5764.6980984841
field sum 199390465
field sqrsum 2654485260545
field min 1
field max 19969
statistic Basic.rack[14].node[7].app 	"End-to-End Delay"
field count 19969
field mean 2.7671787447033e-006
field stddev 3.6723428242294e-006
field sum 0.055257792352981
field sqrsum 4.2219866959358e-007
field min 4e-007
field max 2.170212e-005
statistic Basic.rack[14].node[7].app 	hops
field count 19969
field mean 3.2541439230808
field stddev 0.83142468494087
field sum 64982
field sqrsum 225264
field min 2
field max 4
statistic Basic.rack[14].node[8].app 	throughput
field count 20030
field mean 10015.5
field stddev 5782.3072816999
field sum 200610465
field sqrsum 2678885279455
field min 1
field max 20030
statistic Basic.rack[14].node[8].app 	"End-to-End Delay"
field count 20030
field mean 2.7473764999491e-006
field stddev 3.6741484703099e-006
field sum 0.055029951293981
field sqrsum 4.2156681625852e-007
field min 4e-007
field max 2.3199624e-005
statistic Basic.rack[14].node[8].app 	hops
field count 20030
field mean 3.2529206190714
field stddev 0.83362315360359
field sum 65156
field sqrsum 225866
field min 2
field max 4
statistic Basic.rack[14].node[9].app 	throughput
field count 19876
field mean 9938.5
field stddev 5737.8513109584
field sum 197537626
field sqrsum 2617571082126
field min 1
field max 19876
statistic Basic.rack[14].node[9].app 	"End-to-End Delay"
field count 19876
field mean 2.8282788987714e-006
field stddev 3.7133108685459e-006
field sum 0.056214871391981
field sqrsum 4.330413019835e-007
field min 4e-007
field max 2.1106651e-005
statistic Basic.rack[14].node[9].app 	hops
field count 19876
field mean 3.2353089152747
field stddev 0.83237812534945
field sum 64305
field sqrsum 221817
field min 2
field max 4
statistic Basic.rack[14].eps.queue[0] 	dropsum
field count 0
field mean nan
field stddev nan
field sum 0
field sqrsum 0
field min nan
field max nan
statistic Basic.rack[14].eps.queue[1] 	dropsum
field count 0
field mean nan
field stddev nan
field sum 0
field sqrsum 0
field min nan
field max nan
statistic Basic.rack[14].eps.queue[2] 	dropsum
field count 0
field mean nan
field stddev nan
field sum 0
field sqrsum 0
field min nan
field max nan
statistic Basic.rack[14].eps.queue[3] 	dropsum
field count 0
field mean nan
field stddev nan
field sum 0
field sqrsum 0
field min nan
field max nan
statistic Basic.rack[15].node[0].app 	throughput
field count 20009
field mean 10005
field stddev 5776.2451038715
field sum 200190045
field sqrsum 2670468470285
field min 1
field max 20009
statistic Basic.rack[15].node[0].app 	"End-to-End Delay"
field count 20009
field mean 2.7848190761648e-006
field stddev 3.6804558449439e-006
field sum 0.055721444894981
field sqrsum 4.2619761326845e-007
field min 4e-007
field max 2.4916482e-005
statistic Basic.rack[15].node[0].app 	hops
field count 20009
field mean 3.2628317257234
field stddev 0.82756537623335
field sum 65286
field sqrsum 226720
field min 2
field max 4
statistic Basic.rack[15].node[1].app 	throughput
field count 19933
field mean 9967
field stddev 5754.3057936355
field sum 198672211
field sqrsum 2640155011979
field min 1
field max 19933
statistic Basic.rack[15].node[1].app 	"End-to-End Delay"
field count 19933
field mean 2.7995819588612e-006
field stddev 3.6932468053092e-006
field sum 0.055804067185981
field sqrsum 4.2810197412987e-007
field min 4e-007
field max 2.2421757e-005
statistic Basic.rack[15].node[1].app 	hops
field count 19933
field mean 3.2555561129785
field stddev 0.82882173754754
field sum 64893
field sqrsum 224955
field min 2
field max 4
statistic Basic.rack[15].node[2].app 	throughput
field count 19881
field mean 9941
field stddev 5739.2946866318
field sum 197637021
field sqrsum 2619546955341
field min 1
field max 19881
statistic Basic.rack[15].node[2].app 	"End-to-End Delay"
field count 19881
field mean 2.8095681639244e-006
field stddev 3.6921636335015e-006
field sum 0.055857024666981
field sqrsum 4.2793971549133e-007
field min 4e-007
field max 2.3545633e-005
statistic Basic.rack[15].node[2].app 	hops
field count 19881
field mean 3.2483275489161
field stddev 0.82986892891901
field sum 64580
field sqrsum 223468
field min 2
field max 4
statistic Basic.rack[15].node[3].app 	throughput
field count 20015
field mean 10008
field stddev 5777.9771546797
field sum 200310120
field sqrsum 2672871471240
field min 1
field max 20015
statistic Basic.rack[15].node[3].app 	"End-to-End Delay"
field count 20015
field mean 2.8139709992996e-006
field stddev 3.7044871362734e-006
field sum 0.056321629550981
field sqrsum 4.3314405619526e-007
field min 4e-007
field max 2.1151022e-005
statistic Basic.rack[15].node[3].app 	hops
field count 20015
field mean 3.2464151886085
field stddev 0.83039227390381
field sum 64977
field sqrsum 224743
field min 2
field max 4
statistic Basic.rack[15].node[4].app 	throughput
field count 20131
field mean 10066
field stddev 5811.463470303
field sum 202638646
field sqrsum 2719613267966
field min 1
field max 20131
statistic Basic.rack[15].node[4].app 	"End-to-End Delay"
field count 20131
field mean 2.8249377266892e-006
field stddev 3.7147087927223e-006
field sum 0.056868821375981
field sqrsum 4.3842598525583e-007
field min 4e-007
field max 2.2094174e-005
statistic Basic.rack[15].node[4].app 	hops
field count 20131
field mean 3.2470319407878
field stddev 0.82960946882442
field sum 65366
field sqrsum 226100
field min 2
field max 4
statistic Basic.rack[15].node[5].app 	throughput
field count 19918
field mean 9959.5
field stddev 5749.9756666152
field sum 198373321
field sqrsum 2634199329559
field min 1
field max 19918
statistic Basic.rack[15].node[5].app 	"End-to-End Delay"
field count 19918
field mean 2.8222138586194e-006
field stddev 3.7010258255677e-006
field sum 0.056212855635981
field sqrsum 4.3145964328941e-007
field min 4e-007
field max 1.8908401e-005
statistic Basic.rack[15].node[5].app 	hops
field count 19918
field mean 3.2520835425243
field stddev 0.82801552336477
field sum 64775
field sqrsum 224309
field min 2
field max 4
statistic Basic.rack[15].node[6].app 	throughput
field count 20164
field mean 10082.5
field stddev 5820.9897497476
field sum 203303530
field sqrsum 2733009353790
field min 1
field max 20164
statistic Basic.rack[15].node[6].app 	"End-to-End Delay"
field count 20164
field mean 2.819638583663e-006
field stddev 3.7228188298888e-006
field sum 0.056855192400981
field sqrsum 4.3975777392543e-007
field min 4e-007
field max 2.1005745e-005
statistic Basic.rack[15].node[6].app 	hops
field count 20164
field mean 3.2486113866296
field stddev 0.82989304601767
field sum 65505
field sqrsum 226687
field min 2
field max 4
statistic Basic.rack[15].node[7].app 	throughput
field count 19948
field mean 9974.5
field stddev 5758.6359206557
field sum 198971326
field sqrsum 2646119664474
field min 1
field max 19948
statistic Basic.rack[15].node[7].app 	"End-to-End Delay"
field count 19948
field mean 2.7942787501996e-006
field stddev 3.6947277897798e-006
field sum 0.055740272508981
field sqrsum 4.2805062410126e-007
field min 4e-007
field max 2.1641589e-005
statistic Basic.rack[15].node[7].app 	hops
field count 19948
field mean 3.2441848806898
field stddev 0.83247538267164
field sum 64715
field sqrsum 223771
field min 2
field max 4
statistic Basic.rack[15].node[8].app 	throughput
field count 20104
field mean 10052.5
field stddev 5803.6692416666
field sum 202095460
field sqrsum 2708685450380
field min 1
field max 20104
statistic Basic.rack[15].node[8].app 	"End-to-End Delay"
field count 20104
field mean 2.8047860453631e-006
field stddev 3.6861992518972e-006
field sum 0.056387418655981
field sqrsum 4.3131551416133e-007
field min 4e-007
field max 2.240964e-005
statistic Basic.rack[15].node[8].app 	hops
field count 20104
field mean 3.2558694787107
field stddev 0.82792526823935
field sum 65456
field sqrsum 226896
field min 2
field max 4
statistic Basic.rack[15].node[9].app 	throughput
field count 20127
field mean 10064
field stddev 5810.3087697643
field sum 202558128
field sqrsum 2717992480880
field min 1
field max 20127
statistic Basic.rack[15].node[9].app 	"End-to-End Delay"
field count 20127
field mean 2.7923501554618e-006
field stddev 3.6857771839394e-006
field sum 0.05620163157898
field sqrsum 4.303454078044e-007
field min 4e-007
field max 2.3606266e-005
statistic Basic.rack[15].node[9].app 	hops
field count 20127
field mean 3.2530928603369
field stddev 0.82987857440004
field sum 65475
field sqrsum 226857
field min 2
field max 4
statistic Basic.rack[15].eps.queue[0] 	dropsum
field count 0
field mean nan
field stddev nan
field sum 0
field sqrsum 0
field min nan
field max nan
statistic Basic.rack[15].eps.queue[1] 	dropsum
field count 0
field mean nan
field stddev nan
field sum 0
field sqrsum 0
field min nan
field max nan
statistic Basic.rack[15].eps.queue[2] 	dropsum
field count 0
field mean nan
field stddev nan
field sum 0
field sqrsum 0
field min nan
field max nan
statistic Basic.rack[15].eps.queue[3] 	dropsum
field count 0
field mean nan
field stddev nan
field sum 0
field sqrsum 0
field min nan
field max nan
