version 2
run Basic-39-20180510-17:11:00-19892
attr configname Basic
attr datetime 20180510-17:11:00
attr experiment Basic
attr inifile omnetpp.ini
attr iterationvars "$0=exponential(0.1 ms), $1=5, $2=5"
attr iterationvarsf exponential(0.1_ms),5,5-
attr measurement "$0=exponential(0.1 ms), $1=5, $2=5"
attr network Networks.Basic
attr processid 19892
attr repetition 0
attr replication #0
attr resultdir results
attr runnumber 39
attr seedset 39
param **.frameCapacity 50
param **.packetLength "1024 bytes"
param **.pattern 5
param **.sendIaTime "exponential(0.1 ms)"
param **.tp 5

statistic Basic.rack[0].node[0].app 	throughput
field count 99853
field mean 49927
field stddev 28825.222551902
field sum 4985360731
field sqrsum 3.3187047850194e+014
field min 1
field max 99853
statistic Basic.rack[0].node[0].app 	"End-to-End Delay"
field count 99853
field mean 2.4794462255237e-005
field stddev 2.1021959415997e-005
field sum 2.4758014395721
field sqrsum 0.00010551303854262
field min 8.992e-006
field max 0.000307758508
statistic Basic.rack[0].node[0].app 	hops
field count 99853
field mean 4.5124833505253
field stddev 1.499955565258
field sum 450585
field sqrsum 2257911
field min 3
field max 6
statistic Basic.rack[0].node[1].app 	throughput
field count 100374
field mean 50187.5
field stddev 28975.622297028
field sum 5037520125
field sqrsum 3.3709237585788e+014
field min 1
field max 100374
statistic Basic.rack[0].node[1].app 	"End-to-End Delay"
field count 100374
field mean 2.4634354635345e-005
field stddev 2.0897323129306e-005
field sum 2.4726487121681
field sqrsum 0.00010474480505775
field min 8.992e-006
field max 0.000341390456
statistic Basic.rack[0].node[1].app 	hops
field count 100374
field mean 4.4974595014645
field stddev 1.5000053207205
field sum 451428
field sqrsum 2256120
field min 3
field max 6
statistic Basic.rack[0].node[2].app 	throughput
field count 100073
field mean 50037
field stddev 28888.731081513
field sum 5007352701
field sqrsum 3.3406887368235e+014
field min 1
field max 100073
statistic Basic.rack[0].node[2].app 	"End-to-End Delay"
field count 100073
field mean 2.4776593420344e-005
field stddev 2.1052672243683e-005
field sum 2.4794680333541
field sqrsum 0.00010578618370177
field min 8.992e-006
field max 0.000320159359
statistic Basic.rack[0].node[2].app 	hops
field count 100073
field mean 4.5045117064543
field stddev 1.5000007093709
field sum 450780
field sqrsum 2255706
field min 3
field max 6
statistic Basic.rack[0].node[3].app 	throughput
field count 99952
field mean 49976.5
field stddev 28853.801390227
field sum 4995251128
field sqrsum 3.3285855891428e+014
field min 1
field max 99952
statistic Basic.rack[0].node[3].app 	"End-to-End Delay"
field count 99952
field mean 2.4692759888687e-005
field stddev 2.0975563529228e-005
field sum 2.4680907363941
field sqrsum 0.00010491983973514
field min 8.992e-006
field max 0.000291085447
statistic Basic.rack[0].node[3].app 	hops
field count 99952
field mean 4.5033015847607
field stddev 1.5000038701481
field sum 450114
field sqrsum 2251890
field min 3
field max 6
statistic Basic.rack[0].node[4].app 	throughput
field count 99977
field mean 49989
field stddev 28861.018268592
field sum 4997750253
field sqrsum 3.331083839462e+014
field min 1
field max 99977
statistic Basic.rack[0].node[4].app 	"End-to-End Delay"
field count 99977
field mean 2.4687657110726e-005
field stddev 2.0858337727042e-005
field sum 2.468197894959
field sqrsum 0.00010443060689963
field min 8.992e-006
field max 0.000329680865
statistic Basic.rack[0].node[4].app 	hops
field count 99977
field mean 4.5051461836222
field stddev 1.4999986739763
field sum 450411
field sqrsum 2254113
field min 3
field max 6
statistic Basic.rack[0].node[5].app 	throughput
field count 100441
field mean 50221
field stddev 28994.963531046
field sum 5044247461
field sqrsum 3.3776785423602e+014
field min 1
field max 100441
statistic Basic.rack[0].node[5].app 	"End-to-End Delay"
field count 100441
field mean 2.4623507312912e-005
field stddev 2.0900603706797e-005
field sum 2.4732096980161
field sqrsum 0.00010477482811986
field min 8.992e-006
field max 0.000324812745
statistic Basic.rack[0].node[5].app 	hops
field count 100441
field mean 4.4981631007258
field stddev 1.500006342387
field sum 451800
field sqrsum 2258262
field min 3
field max 6
statistic Basic.rack[0].node[6].app 	throughput
field count 99979
field mean 49990
field stddev 28861.595618861
field sum 4997950210
field sqrsum 3.3312837534713e+014
field min 1
field max 99979
statistic Basic.rack[0].node[6].app 	"End-to-End Delay"
field count 99979
field mean 2.4801429028478e-005
field stddev 2.1115173237283e-005
field sum 2.4796220728382
field sqrsum 0.00010607341622909
field min 8.992e-006
field max 0.000312667959
statistic Basic.rack[0].node[6].app 	hops
field count 99979
field mean 4.5075165784815
field stddev 1.4999886684352
field sum 450657
field sqrsum 2256291
field min 3
field max 6
statistic Basic.rack[0].node[7].app 	throughput
field count 99541
field mean 49771
field stddev 28735.155909907
field sum 4954255111
field sqrsum 3.2876932342107e+014
field min 1
field max 99541
statistic Basic.rack[0].node[7].app 	"End-to-End Delay"
field count 99541
field mean 2.4598511601442e-005
field stddev 2.0836932121805e-005
field sum 2.4485604433191
field sqrsum 0.00010344899473617
field min 8.992e-006
field max 0.000301293942
statistic Basic.rack[0].node[7].app 	hops
field count 99541
field mean 4.4954641805889
field stddev 1.5000006767045
field sum 447483
field sqrsum 2235609
field min 3
field max 6
statistic Basic.rack[0].node[8].app 	throughput
field count 99951
field mean 49976
field stddev 28853.512715092
field sum 4995151176
field sqrsum 3.3284856851198e+014
field min 1
field max 99951
statistic Basic.rack[0].node[8].app 	"End-to-End Delay"
field count 99951
field mean 2.4647723058339e-005
field stddev 2.0976014612696e-005
field sum 2.4635645674041
field sqrsum 0.00010469857643746
field min 8.992e-006
field max 0.000323961574
statistic Basic.rack[0].node[8].app 	hops
field count 99951
field mean 4.4932616982321
field stddev 1.4999923686775
field sum 449106
field sqrsum 2242836
field min 3
field max 6
statistic Basic.rack[0].node[9].app 	throughput
field count 100264
field mean 50132.5
field stddev 28943.868032222
field sum 5026484980
field sqrsum 3.3598533551814e+014
field min 1
field max 100264
statistic Basic.rack[0].node[9].app 	"End-to-End Delay"
field count 100264
field mean 2.464688613679e-005
field stddev 2.0919768150926e-005
field sum 2.4711953916191
field sqrsum 0.00010478603983981
field min 8.992e-006
field max 0.000304879553
statistic Basic.rack[0].node[9].app 	hops
field count 100264
field mean 4.4971275831804
field stddev 1.5000047300324
field sum 450900
field sqrsum 2253348
field min 3
field max 6
statistic Basic.rack[0].eps.queue[0] 	dropsum
field count 0
field mean nan
field stddev nan
field sum 0
field sqrsum 0
field min nan
field max nan
statistic Basic.rack[0].eps.queue[1] 	dropsum
field count 0
field mean nan
field stddev nan
field sum 0
field sqrsum 0
field min nan
field max nan
statistic Basic.rack[0].eps.queue[2] 	dropsum
field count 0
field mean nan
field stddev nan
field sum 0
field sqrsum 0
field min nan
field max nan
statistic Basic.rack[0].eps.queue[3] 	dropsum
field count 0
field mean nan
field stddev nan
field sum 0
field sqrsum 0
field min nan
field max nan
statistic Basic.rack[1].node[0].app 	throughput
field count 99905
field mean 49953
field stddev 28840.233658901
field sum 4990554465
field sqrsum 3.323892260687e+014
field min 1
field max 99905
statistic Basic.rack[1].node[0].app 	"End-to-End Delay"
field count 99905
field mean 2.4615253170813e-005
field stddev 2.0844706482577e-005
field sum 2.4591868680301
field sqrsum 0.0001039419740137
field min 8.992e-006
field max 0.000313540015
statistic Basic.rack[1].node[0].app 	hops
field count 99905
field mean 4.4965317051199
field stddev 1.5000034974729
field sum 449226
field sqrsum 2244744
field min 3
field max 6
statistic Basic.rack[1].node[1].app 	throughput
field count 100051
field mean 50026
field stddev 28882.380228552
field sum 5005151326
field sqrsum 3.3384859859553e+014
field min 1
field max 100051
statistic Basic.rack[1].node[1].app 	"End-to-End Delay"
field count 100051
field mean 2.4649660025688e-005
field stddev 2.0950852082798e-005
field sum 2.4662231352301
field sqrsum 0.00010470732904059
field min 8.992e-006
field max 0.000307641309
statistic Basic.rack[1].node[1].app 	hops
field count 100051
field mean 4.4966866897882
field stddev 1.5000038368689
field sum 449898
field sqrsum 2248164
field min 3
field max 6
statistic Basic.rack[1].node[2].app 	throughput
field count 99937
field mean 49969
field stddev 28849.471263208
field sum 4993751953
field sqrsum 3.3270872386862e+014
field min 1
field max 99937
statistic Basic.rack[1].node[2].app 	"End-to-End Delay"
field count 99937
field mean 2.4646940551359e-005
field stddev 2.0838196544994e-005
field sum 2.4631412978811
field sqrsum 0.0001041041499154
field min 8.992e-006
field max 0.000331397903
statistic Basic.rack[1].node[2].app 	hops
field count 99937
field mean 4.5020262765542
field stddev 1.5000061361779
field sum 449919
field sqrsum 2250405
field min 3
field max 6
statistic Basic.rack[1].node[3].app 	throughput
field count 100026
field mean 50013.5
field stddev 28875.163350187
field sum 5002650351
field sqrsum 3.335984035562e+014
field min 1
field max 100026
statistic Basic.rack[1].node[3].app 	"End-to-End Delay"
field count 100026
field mean 2.4643421086599e-005
field stddev 2.0847978029471e-005
field sum 2.4649828376081
field sqrsum 0.00010422029478485
field min 8.992e-006
field max 0.000274896059
statistic Basic.rack[1].node[3].app 	hops
field count 100026
field mean 4.4984404054946
field stddev 1.5000066873241
field sum 449961
field sqrsum 2249181
field min 3
field max 6
statistic Basic.rack[1].node[4].app 	throughput
field count 100103
field mean 50052
field stddev 28897.391335551
field sum 5010355356
field sqrsum 3.3436940491956e+014
field min 1
field max 100103
statistic Basic.rack[1].node[4].app 	"End-to-End Delay"
field count 100103
field mean 2.4697189463374e-005
field stddev 2.0944704665869e-005
field sum 2.4722627568521
field sqrsum 0.00010497075248993
field min 8.992e-006
field max 0.000287343574
statistic Basic.rack[1].node[4].app 	hops
field count 100103
field mean 4.4987562810305
field stddev 1.5000069767241
field sum 450339
field sqrsum 2251197
field min 3
field max 6
statistic Basic.rack[1].node[5].app 	throughput
field count 99907
field mean 49954
field stddev 28840.81100917
field sum 4990754278
field sqrsum 3.3240918868619e+014
field min 1
field max 99907
statistic Basic.rack[1].node[5].app 	"End-to-End Delay"
field count 99907
field mean 2.4583542658834e-005
field stddev 2.0893323776353e-005
field sum 2.4560679964161
field sqrsum 0.00010399091629327
field min 8.992e-006
field max 0.000312409408
statistic Basic.rack[1].node[5].app 	hops
field count 99907
field mean 4.4974326123295
field stddev 1.5000053098654
field sum 449325
field sqrsum 2245599
field min 3
field max 6
statistic Basic.rack[1].node[6].app 	throughput
field count 99320
field mean 49660.5
field stddev 28671.358705161
field sum 4932280860
field sqrsum 3.2658440077042e+014
field min 1
field max 99320
statistic Basic.rack[1].node[6].app 	"End-to-End Delay"
field count 99320
field mean 2.4545242415486e-005
field stddev 2.0668161431663e-005
field sum 2.4378334767061
field sqrsum 0.00010226359860803
field min 8.992e-006
field max 0.000294883063
statistic Basic.rack[1].node[6].app 	hops
field count 99320
field mean 4.4984897301651
field stddev 1.5000067910972
field sum 446790
field sqrsum 2233350
field min 3
field max 6
statistic Basic.rack[1].node[7].app 	throughput
field count 99988
field mean 49994.5
field stddev 28864.193695073
field sum 4998850066
field sqrsum 3.3321834654949e+014
field min 1
field max 99988
statistic Basic.rack[1].node[7].app 	"End-to-End Delay"
field count 99988
field mean 2.4671724261432e-005
field stddev 2.0997232237805e-005
field sum 2.4668763654521
field sqrsum 0.00010494473815141
field min 8.992e-006
field max 0.000304325645
statistic Basic.rack[1].node[7].app 	hops
field count 99988
field mean 4.4990098811857
field stddev 1.5000071741763
field sum 449847
field sqrsum 2248839
field min 3
field max 6
statistic Basic.rack[1].node[8].app 	throughput
field count 99946
field mean 49973.5
field stddev 28852.069339419
field sum 4994651431
field sqrsum 3.3279861949896e+014
field min 1
field max 99946
statistic Basic.rack[1].node[8].app 	"End-to-End Delay"
field count 99946
field mean 2.4668669616284e-005
field stddev 2.0940246789038e-005
field sum 2.4655348534691
field sqrsum 0.00010464674111979
field min 8.992e-006
field max 0.000311177099
statistic Basic.rack[1].node[8].app 	hops
field count 99946
field mean 4.5043523502691
field stddev 1.500001189746
field sum 450192
field sqrsum 2252700
field min 3
field max 6
statistic Basic.rack[1].node[9].app 	throughput
field count 99932
field mean 49966.5
field stddev 28848.027887535
field sum 4993252278
field sqrsum 3.3265878884749e+014
field min 1
field max 99932
statistic Basic.rack[1].node[9].app 	"End-to-End Delay"
field count 99932
field mean 2.4501100363458e-005
field stddev 2.0722501176428e-005
field sum 2.4484439615211
field sqrsum 0.00010290214661444
field min 8.992e-006
field max 0.000283447867
statistic Basic.rack[1].node[9].app 	hops
field count 99932
field mean 4.4874514669976
field stddev 1.4999550154186
field sum 448440
field sqrsum 2237184
field min 3
field max 6
statistic Basic.rack[1].eps.queue[0] 	dropsum
field count 0
field mean nan
field stddev nan
field sum 0
field sqrsum 0
field min nan
field max nan
statistic Basic.rack[1].eps.queue[1] 	dropsum
field count 0
field mean nan
field stddev nan
field sum 0
field sqrsum 0
field min nan
field max nan
statistic Basic.rack[1].eps.queue[2] 	dropsum
field count 0
field mean nan
field stddev nan
field sum 0
field sqrsum 0
field min nan
field max nan
statistic Basic.rack[1].eps.queue[3] 	dropsum
field count 0
field mean nan
field stddev nan
field sum 0
field sqrsum 0
field min nan
field max nan
statistic Basic.rack[2].node[0].app 	throughput
field count 99691
field mean 49846
field stddev 28778.457180097
field sum 4969197586
field sqrsum 3.3025784076315e+014
field min 1
field max 99691
statistic Basic.rack[2].node[0].app 	"End-to-End Delay"
field count 99691
field mean 1.698070442608e-005
field stddev 1.8931794388084e-005
field sum 1.6928234049403
field sqrsum 6.4475509780098e-005
field min 8.496e-007
field max 0.000326272606
statistic Basic.rack[2].node[0].app 	hops
field count 99691
field mean 4.2493204000361
field stddev 0.83002236092886
field sum 423619
field sqrsum 1868773
field min 3
field max 5
statistic Basic.rack[2].node[1].app 	throughput
field count 100297
field mean 50149
field stddev 28953.394311663
field sum 5029794253
field sqrsum 3.3631719272684e+014
field min 1
field max 100297
statistic Basic.rack[2].node[1].app 	"End-to-End Delay"
field count 100297
field mean 1.6989340759019e-005
field stddev 1.8859315552439e-005
field sum 1.7039799101073
field sqrsum 6.462215308978e-005
field min 8.496e-007
field max 0.000328703056
statistic Basic.rack[2].node[1].app 	hops
field count 100297
field mean 4.2525200155538
field stddev 0.82830154451907
field sum 426515
field sqrsum 1882575
field min 3
field max 5
statistic Basic.rack[2].node[2].app 	throughput
field count 99992
field mean 49996.5
field stddev 28865.348395611
field sum 4999250028
field sqrsum 3.3325833894986e+014
field min 1
field max 99992
statistic Basic.rack[2].node[2].app 	"End-to-End Delay"
field count 99992
field mean 1.7020509445419e-005
field stddev 1.8820561483083e-005
field sum 1.7019147804663
field sqrsum 6.4385622128265e-005
field min 8.496e-007
field max 0.000280779581
statistic Basic.rack[2].node[2].app 	hops
field count 99992
field mean 4.2494399551964
field stddev 0.82837578728193
field sum 424910
field sqrsum 1874244
field min 3
field max 5
statistic Basic.rack[2].node[3].app 	throughput
field count 100350
field mean 50175.5
field stddev 28968.694093797
field sum 5035111425
field sqrsum 3.3685063270298e+014
field min 1
field max 100350
statistic Basic.rack[2].node[3].app 	"End-to-End Delay"
field count 100350
field mean 1.7008557512539e-005
field stddev 1.8922888849985e-005
field sum 1.7068087463832
field sqrsum 6.4962895395781e-005
field min 8.496e-007
field max 0.000293562977
statistic Basic.rack[2].node[3].app 	hops
field count 100350
field mean 4.2534628799203
field stddev 0.82597862954293
field sum 426835
field sqrsum 1883989
field min 3
field max 5
statistic Basic.rack[2].node[4].app 	throughput
field count 99776
field mean 49888.5
field stddev 28802.994566538
field sum 4977674976
field sqrsum 3.3110332482858e+014
field min 1
field max 99776
statistic Basic.rack[2].node[4].app 	"End-to-End Delay"
field count 99776
field mean 1.7000077978835e-005
field stddev 1.8835984878364e-005
field sum 1.6961997804163
field sqrsum 6.4235132445129e-005
field min 8.496e-007
field max 0.000292601076
statistic Basic.rack[2].node[4].app 	hops
field count 99776
field mean 4.2451792014112
field stddev 0.8306529218519
field sum 423567
field sqrsum 1866961
field min 3
field max 5
statistic Basic.rack[2].node[5].app 	throughput
field count 100319
field mean 50160
field stddev 28959.745164625
field sum 5032001040
field sqrsum 3.3653855222152e+014
field min 1
field max 100319
statistic Basic.rack[2].node[5].app 	"End-to-End Delay"
field count 100319
field mean 1.7151526652352e-005
field stddev 1.8932400240528e-005
field sum 1.7206240022373
field sqrsum 6.5468888897484e-005
field min 8.496e-007
field max 0.000266891329
statistic Basic.rack[2].node[5].app 	hops
field count 100319
field mean 4.2475602826982
field stddev 0.8307789045116
field sum 426111
field sqrsum 1879171
field min 3
field max 5
statistic Basic.rack[2].node[6].app 	throughput
field count 99676
field mean 49838.5
field stddev 28774.127053078
field sum 4967702326
field sqrsum 3.3010878726503e+014
field min 1
field max 99676
statistic Basic.rack[2].node[6].app 	"End-to-End Delay"
field count 99676
field mean 1.7048040396197e-005
field stddev 1.8745463139639e-005
field sum 1.6992804745313
field sqrsum 6.399443848003e-005
field min 8.496e-007
field max 0.000312644199
statistic Basic.rack[2].node[6].app 	hops
field count 99676
field mean 4.2504614952446
field stddev 0.83171538206388
field sum 423669
field sqrsum 1869739
field min 3
field max 5
statistic Basic.rack[2].node[7].app 	throughput
field count 100580
field mean 50290.5
field stddev 29035.089374755
field sum 5058218490
field sqrsum 3.3917209655563e+014
field min 1
field max 100580
statistic Basic.rack[2].node[7].app 	"End-to-End Delay"
field count 100580
field mean 1.7178264062132e-005
field stddev 1.9035286668448e-005
field sum 1.7277897993693
field sqrsum 6.6124439370644e-005
field min 8.496e-007
field max 0.000286201434
statistic Basic.rack[2].node[7].app 	hops
field count 100580
field mean 4.2521475442434
field stddev 0.82913355600743
field sum 427681
field sqrsum 1887707
field min 3
field max 5
statistic Basic.rack[2].node[8].app 	throughput
field count 100077
field mean 50039
field stddev 28889.885782052
field sum 5007753003
field sqrsum 3.3410893410516e+014
field min 1
field max 100077
statistic Basic.rack[2].node[8].app 	"End-to-End Delay"
field count 100077
field mean 1.6942953785129e-005
field stddev 1.8876824251989e-005
field sum 1.6955999859543
field sqrsum 6.4389003005668e-005
field min 8.496e-007
field max 0.000276016223
statistic Basic.rack[2].node[8].app 	hops
field count 100077
field mean 4.2463003487315
field stddev 0.83002158755418
field sum 424957
field sqrsum 1873441
field min 3
field max 5
statistic Basic.rack[2].node[9].app 	throughput
field count 99995
field mean 49998
field stddev 28866.214421015
field sum 4999550010
field sqrsum 3.3328833534997e+014
field min 1
field max 99995
statistic Basic.rack[2].node[9].app 	"End-to-End Delay"
field count 99995
field mean 1.7055783029485e-005
field stddev 1.8892668866632e-005
field sum 1.7054930240333
field sqrsum 6.477967106901e-005
field min 8.496e-007
field max 0.000328061779
statistic Basic.rack[2].node[9].app 	hops
field count 99995
field mean 4.2492624631232
field stddev 0.83007389576284
field sum 424905
field sqrsum 1874431
field min 3
field max 5
statistic Basic.rack[2].eps.queue[0] 	dropsum
field count 0
field mean nan
field stddev nan
field sum 0
field sqrsum 0
field min nan
field max nan
statistic Basic.rack[2].eps.queue[1] 	dropsum
field count 0
field mean nan
field stddev nan
field sum 0
field sqrsum 0
field min nan
field max nan
statistic Basic.rack[2].eps.queue[2] 	dropsum
field count 0
field mean nan
field stddev nan
field sum 0
field sqrsum 0
field min nan
field max nan
statistic Basic.rack[2].eps.queue[3] 	dropsum
field count 0
field mean nan
field stddev nan
field sum 0
field sqrsum 0
field min nan
field max nan
statistic Basic.rack[3].node[0].app 	throughput
field count 99810
field mean 49905.5
field stddev 28812.809521114
field sum 4981067955
field sqrsum 3.3144192208168e+014
field min 1
field max 99810
statistic Basic.rack[3].node[0].app 	"End-to-End Delay"
field count 99810
field mean 1.6987596390886e-005
field stddev 1.8717314597242e-005
field sum 1.6955319957743
field sqrsum 6.3769885252904e-005
field min 8.496e-007
field max 0.000283967864
statistic Basic.rack[3].node[0].app 	hops
field count 99810
field mean 4.2484220018034
field stddev 0.82984883226046
field sum 424035
field sqrsum 1870213
field min 3
field max 5
statistic Basic.rack[3].node[1].app 	throughput
field count 99692
field mean 49846.5
field stddev 28778.745855231
field sum 4969297278
field sqrsum 3.3026777925801e+014
field min 1
field max 99692
statistic Basic.rack[3].node[1].app 	"End-to-End Delay"
field count 99692
field mean 1.7121980136473e-005
field stddev 1.8887069402291e-005
field sum 1.7069244437653
field sqrsum 6.4787838571609e-005
field min 8.496e-007
field max 0.000261021906
statistic Basic.rack[3].node[1].app 	hops
field count 99692
field mean 4.2493680536051
field stddev 0.83004580465819
field sum 423628
field sqrsum 1868836
field min 3
field max 5
statistic Basic.rack[3].node[2].app 	throughput
field count 100293
field mean 50147
field stddev 28952.239611125
field sum 5029393071
field sqrsum 3.3627695597756e+014
field min 1
field max 100293
statistic Basic.rack[3].node[2].app 	"End-to-End Delay"
field count 100293
field mean 1.7030613568178e-005
field stddev 1.8785773496759e-005
field sum 1.7080513265932
field sqrsum 6.4482739028451e-005
field min 8.496e-007
field max 0.000223293209
statistic Basic.rack[3].node[2].app 	hops
field count 100293
field mean 4.2488907501022
field stddev 0.82944739474904
field sum 426134
field sqrsum 1879596
field min 3
field max 5
statistic Basic.rack[3].node[3].app 	throughput
field count 100416
field mean 50208.5
field stddev 28987.746652681
field sum 5041736736
field sqrsum 3.375157046337e+014
field min 1
field max 100416
statistic Basic.rack[3].node[3].app 	"End-to-End Delay"
field count 100416
field mean 1.7087939512461e-005
field stddev 1.8862741983678e-005
field sum 1.7159025340833
field sqrsum 6.5049200485559e-005
field min 8.496e-007
field max 0.000259666707
statistic Basic.rack[3].node[3].app 	hops
field count 100416
field mean 4.2497809114085
field stddev 0.82869776208209
field sum 426746
field sqrsum 1882536
field min 3
field max 5
statistic Basic.rack[3].node[4].app 	throughput
field count 99962
field mean 49981.5
field stddev 28856.688141573
field sum 4996250703
field sqrsum 3.3295847393242e+014
field min 1
field max 99962
statistic Basic.rack[3].node[4].app 	"End-to-End Delay"
field count 99962
field mean 1.7022336973383e-005
field stddev 1.8784886554977e-005
field sum 1.7015868485333
field sqrsum 6.4238419006993e-005
field min 8.496e-007
field max 0.000247514192
statistic Basic.rack[3].node[4].app 	hops
field count 99962
field mean 4.249314739601
field stddev 0.8297073352447
field sum 424770
field sqrsum 1873796
field min 3
field max 5
statistic Basic.rack[3].node[5].app 	throughput
field count 99925
field mean 49963
field stddev 28846.007161593
field sum 4992552775
field sqrsum 3.3258888821218e+014
field min 1
field max 99925
statistic Basic.rack[3].node[5].app 	"End-to-End Delay"
field count 99925
field mean 1.7067704198601e-005
field stddev 1.8977481828033e-005
field sum 1.7054903420452
field sqrsum 6.5095915318874e-005
field min 8.496e-007
field max 0.000285897685
statistic Basic.rack[3].node[5].app 	hops
field count 99925
field mean 4.2502777082812
field stddev 0.827997033837
field sum 424709
field sqrsum 1873637
field min 3
field max 5
statistic Basic.rack[3].node[6].app 	throughput
field count 100476
field mean 50238.5
field stddev 29005.067160757
field sum 5047763526
field sqrsum 3.3812107461343e+014
field min 1
field max 100476
statistic Basic.rack[3].node[6].app 	"End-to-End Delay"
field count 100476
field mean 1.7097010055767e-005
field stddev 1.8959070350886e-005
field sum 1.7178391823633
field sqrsum 6.5485285647611e-005
field min 8.496e-007
field max 0.000239673246
statistic Basic.rack[3].node[6].app 	hops
field count 100476
field mean 4.2512440781878
field stddev 0.82796118641081
field sum 427148
field sqrsum 1884788
field min 3
field max 5
statistic Basic.rack[3].node[7].app 	throughput
field count 99777
field mean 49889
field stddev 28803.283241672
field sum 4977774753
field sqrsum 3.311132802783e+014
field min 1
field max 99777
statistic Basic.rack[3].node[7].app 	"End-to-End Delay"
field count 99777
field mean 1.7004332928083e-005
field stddev 1.8961989459228e-005
field sum 1.6966413265653
field sqrsum 6.4725417623736e-005
field min 8.496e-007
field max 0.000279772087
statistic Basic.rack[3].node[7].app 	hops
field count 99777
field mean 4.2535053168566
field stddev 0.82661292777381
field sum 424402
field sqrsum 1873372
field min 3
field max 5
statistic Basic.rack[3].node[8].app 	throughput
field count 99601
field mean 49801
field stddev 28752.476417983
field sum 4960229401
field sqrsum 3.293641924558e+014
field min 1
field max 99601
statistic Basic.rack[3].node[8].app 	"End-to-End Delay"
field count 99601
field mean 1.7031333514506e-005
field stddev 1.8838033917727e-005
field sum 1.6963378493783
field sqrsum 6.423609924583e-005
field min 8.496e-007
field max 0.000261303662
statistic Basic.rack[3].node[8].app 	hops
field count 99601
field mean 4.251121976687
field stddev 0.82817441559228
field sum 423416
field sqrsum 1868306
field min 3
field max 5
statistic Basic.rack[3].node[9].app 	throughput
field count 99907
field mean 49954
field stddev 28840.81100917
field sum 4990754278
field sqrsum 3.3240918868619e+014
field min 1
field max 99907
statistic Basic.rack[3].node[9].app 	"End-to-End Delay"
field count 99907
field mean 1.7038808765094e-005
field stddev 1.8893163573379e-005
field sum 1.7022962672943
field sqrsum 6.4666710087806e-005
field min 8.496e-007
field max 0.000248677485
statistic Basic.rack[3].node[9].app 	hops
field count 99907
field mean 4.2492417948692
field stddev 0.82945344299295
field sum 424529
field sqrsum 1872661
field min 3
field max 5
statistic Basic.rack[3].eps.queue[0] 	dropsum
field count 0
field mean nan
field stddev nan
field sum 0
field sqrsum 0
field min nan
field max nan
statistic Basic.rack[3].eps.queue[1] 	dropsum
field count 0
field mean nan
field stddev nan
field sum 0
field sqrsum 0
field min nan
field max nan
statistic Basic.rack[3].eps.queue[2] 	dropsum
field count 0
field mean nan
field stddev nan
field sum 0
field sqrsum 0
field min nan
field max nan
statistic Basic.rack[3].eps.queue[3] 	dropsum
field count 0
field mean nan
field stddev nan
field sum 0
field sqrsum 0
field min nan
field max nan
statistic Basic.rack[4].node[0].app 	throughput
field count 100339
field mean 50170
field stddev 28965.518667317
field sum 5034007630
field sqrsum 3.3673987239359e+014
field min 1
field max 100339
statistic Basic.rack[4].node[0].app 	"End-to-End Delay"
field count 100339
field mean 2.4703788679159e-005
field stddev 2.0964690856795e-005
field sum 2.4787534522781
field sqrsum 0.00010533498491771
field min 8.992e-006
field max 0.000293983649
statistic Basic.rack[4].node[0].app 	hops
field count 100339
field mean 4.4993870778062
field stddev 1.5000073494916
field sum 451464
field sqrsum 2257074
field min 3
field max 6
statistic Basic.rack[4].node[1].app 	throughput
field count 99911
field mean 49956
field stddev 28841.965709708
field sum 4991153916
field sqrsum 3.3244911631896e+014
field min 1
field max 99911
statistic Basic.rack[4].node[1].app 	"End-to-End Delay"
field count 99911
field mean 2.4690694024003e-005
field stddev 2.0972226464917e-005
field sum 2.4668719306321
field sqrsum 0.00010485262323975
field min 8.992e-006
field max 0.000264101244
statistic Basic.rack[4].node[1].app 	hops
field count 99911
field mean 4.4989340513057
field stddev 1.5000071279865
field sum 449493
field sqrsum 2247039
field min 3
field max 6
statistic Basic.rack[4].node[2].app 	throughput
field count 99710
field mean 49855.5
field stddev 28783.942007654
field sum 4971091905
field sqrsum 3.3044670626234e+014
field min 1
field max 99710
statistic Basic.rack[4].node[2].app 	"End-to-End Delay"
field count 99710
field mean 2.4717507601836e-005
field stddev 2.0962236553066e-005
field sum 2.4645826829791
field sqrsum 0.00010473200746242
field min 8.992e-006
field max 0.000264543215
statistic Basic.rack[4].node[2].app 	hops
field count 99710
field mean 4.4959683080935
field stddev 1.500002103653
field sum 448293
field sqrsum 2239857
field min 3
field max 6
statistic Basic.rack[4].node[3].app 	throughput
field count 99410
field mean 49705.5
field stddev 28697.339467275
field sum 4941223755
field sqrsum 3.2747301606428e+014
field min 1
field max 99410
statistic Basic.rack[4].node[3].app 	"End-to-End Delay"
field count 99410
field mean 2.4673839749795e-005
field stddev 2.0896876175473e-005
field sum 2.4528264095271
field sqrsum 0.00010393051160661
field min 8.992e-006
field max 0.000254935792
statistic Basic.rack[4].node[3].app 	hops
field count 99410
field mean 4.4936927874459
field stddev 1.4999942841342
field sum 446718
field sqrsum 2231082
field min 3
field max 6
statistic Basic.rack[4].node[4].app 	throughput
field count 100144
field mean 50072.5
field stddev 28909.22701607
field sum 5014460440
field sqrsum 3.3478042235572e+014
field min 1
field max 100144
statistic Basic.rack[4].node[4].app 	"End-to-End Delay"
field count 100144
field mean 2.4623957647649e-005
field stddev 2.0773832071455e-005
field sum 2.4659416146661
field sqrsum 0.00010393816372456
field min 8.992e-006
field max 0.000255551647
statistic Basic.rack[4].node[4].app 	hops
field count 100144
field mean 4.5023066783831
field stddev 1.5000057156733
field sum 450879
field sqrsum 2255319
field min 3
field max 6
statistic Basic.rack[4].node[5].app 	throughput
field count 100931
field mean 50466
field stddev 29136.414346999
field sum 5093583846
field sqrsum 3.4273537196837e+014
field min 1
field max 100931
statistic Basic.rack[4].node[5].app 	"End-to-End Delay"
field count 100931
field mean 2.4750278885884e-005
field stddev 2.1119359530091e-005
field sum 2.4980703982311
field sqrsum 0.00010684547916159
field min 8.992e-006
field max 0.000263693323
statistic Basic.rack[4].node[5].app 	hops
field count 100931
field mean 4.5004309875063
field stddev 1.5000073689572
field sum 454233
field sqrsum 2271339
field min 3
field max 6
statistic Basic.rack[4].node[6].app 	throughput
field count 100191
field mean 50096
field stddev 28922.794747396
field sum 5019168336
field sqrsum 3.352520028909e+014
field min 1
field max 100191
statistic Basic.rack[4].node[6].app 	"End-to-End Delay"
field count 100191
field mean 2.4703677052122e-005
field stddev 2.0919055709044e-005
field sum 2.4750861075291
field sqrsum 0.00010498756236183
field min 8.992e-006
field max 0.000291114872
statistic Basic.rack[4].node[6].app 	hops
field count 100191
field mean 4.5063927897715
field stddev 1.4999938630415
field sum 451500
field sqrsum 2260062
field min 3
field max 6
statistic Basic.rack[4].node[7].app 	throughput
field count 100089
field mean 50045
field stddev 28893.349883667
field sum 5008954005
field sqrsum 3.3422913458896e+014
field min 1
field max 100089
statistic Basic.rack[4].node[7].app 	"End-to-End Delay"
field count 100089
field mean 2.4681520153944e-005
field stddev 2.0895857818689e-005
field sum 2.4703486706881
field sqrsum 0.00010467407194566
field min 8.992e-006
field max 0.000286099243
statistic Basic.rack[4].node[7].app 	hops
field count 100089
field mean 4.5010340796691
field stddev 1.500007136945
field sum 450504
field sqrsum 2252934
field min 3
field max 6
statistic Basic.rack[4].node[8].app 	throughput
field count 99467
field mean 49734
field stddev 28713.793949947
field sum 4946891778
field sqrsum 3.2803663861881e+014
field min 1
field max 99467
statistic Basic.rack[4].node[8].app 	"End-to-End Delay"
field count 99467
field mean 2.4743498119659e-005
field stddev 2.0984106883357e-005
field sum 2.4611615274681
field sqrsum 0.00010469588211223
field min 8.992e-006
field max 0.000263556931
statistic Basic.rack[4].node[8].app 	hops
field count 99467
field mean 4.5059265887179
field stddev 1.4999958319902
field sum 448191
field sqrsum 2243313
field min 3
field max 6
statistic Basic.rack[4].node[9].app 	throughput
field count 100043
field mean 50022
field stddev 28880.070827475
field sum 5004350946
field sqrsum 3.3376852257743e+014
field min 1
field max 100043
statistic Basic.rack[4].node[9].app 	"End-to-End Delay"
field count 100043
field mean 2.4774546220007e-005
field stddev 2.0974954731402e-005
field sum 2.4785199274882
field sqrsum 0.00010541755694569
field min 8.992e-006
field max 0.000256503876
statistic Basic.rack[4].node[9].app 	hops
field count 100043
field mean 4.505532620973
field stddev 1.4999972934486
field sum 450747
field sqrsum 2255949
field min 3
field max 6
statistic Basic.rack[4].eps.queue[0] 	dropsum
field count 0
field mean nan
field stddev nan
field sum 0
field sqrsum 0
field min nan
field max nan
statistic Basic.rack[4].eps.queue[1] 	dropsum
field count 0
field mean nan
field stddev nan
field sum 0
field sqrsum 0
field min nan
field max nan
statistic Basic.rack[4].eps.queue[2] 	dropsum
field count 0
field mean nan
field stddev nan
field sum 0
field sqrsum 0
field min nan
field max nan
statistic Basic.rack[4].eps.queue[3] 	dropsum
field count 0
field mean nan
field stddev nan
field sum 0
field sqrsum 0
field min nan
field max nan
statistic Basic.rack[5].node[0].app 	throughput
field count 100726
field mean 50363.5
field stddev 29077.235944406
field sum 5072913901
field sqrsum 3.4065124136605e+014
field min 1
field max 100726
statistic Basic.rack[5].node[0].app 	"End-to-End Delay"
field count 100726
field mean 2.4618790203365e-005
field stddev 2.0932725117873e-005
field sum 2.4797522620242
field sqrsum 0.00010518407854226
field min 8.992e-006
field max 0.000245578883
statistic Basic.rack[5].node[0].app 	hops
field count 100726
field mean 4.4977662172627
field stddev 1.5000057827269
field sum 453042
field sqrsum 2264310
field min 3
field max 6
statistic Basic.rack[5].node[1].app 	throughput
field count 100340
field mean 50170.5
field stddev 28965.807342451
field sum 5034107970
field sqrsum 3.3674994050919e+014
field min 1
field max 100340
statistic Basic.rack[5].node[1].app 	"End-to-End Delay"
field count 100340
field mean 2.4704733132541e-005
field stddev 2.0955150619958e-005
field sum 2.4788729225191
field sqrsum 0.00010530058888724
field min 8.992e-006
field max 0.000246690734
statistic Basic.rack[5].node[1].app 	hops
field count 100340
field mean 4.5006577636037
field stddev 1.5000073304239
field sum 451596
field sqrsum 2258244
field min 3
field max 6
statistic Basic.rack[5].node[2].app 	throughput
field count 100066
field mean 50033.5
field stddev 28886.710355571
field sum 5006652211
field sqrsum 3.3399877564802e+014
field min 1
field max 100066
statistic Basic.rack[5].node[2].app 	"End-to-End Delay"
field count 100066
field mean 2.469564184968e-005
field stddev 2.0934501108474e-005
field sum 2.4711940973301
field sqrsum 0.00010488154450166
field min 8.992e-006
field max 0.000256111996
statistic Basic.rack[5].node[2].app 	hops
field count 100066
field mean 4.50401734855
field stddev 1.5000021153765
field sum 450699
field sqrsum 2255103
field min 3
field max 6
statistic Basic.rack[5].node[3].app 	throughput
field count 100047
field mean 50024
field stddev 28881.225528014
field sum 5004751128
field sqrsum 3.3380855898572e+014
field min 1
field max 100047
statistic Basic.rack[5].node[3].app 	"End-to-End Delay"
field count 100047
field mean 2.4606972443882e-005
field stddev 2.082346441596e-005
field sum 2.4618537720931
field sqrsum 0.00010396038132587
field min 8.992e-006
field max 0.000254705261
statistic Basic.rack[5].node[3].app 	hops
field count 100047
field mean 4.4915289813788
field stddev 1.4999835768371
field sum 449364
field sqrsum 2243430
field min 3
field max 6
statistic Basic.rack[5].node[4].app 	throughput
field count 99112
field mean 49556.5
field stddev 28611.314277164
field sum 4911643828
field sqrsum 3.245368659351e+014
field min 1
field max 99112
statistic Basic.rack[5].node[4].app 	"End-to-End Delay"
field count 99112
field mean 2.4739120998356e-005
field stddev 2.0981048049384e-005
field sum 2.4519437603891
field sqrsum 0.00010428802940311
field min 8.992e-006
field max 0.000249085191
statistic Basic.rack[5].node[4].app 	hops
field count 99112
field mean 4.5019674711438
field stddev 1.5000062769327
field sum 446199
field sqrsum 2231775
field min 3
field max 6
statistic Basic.rack[5].node[5].app 	throughput
field count 100300
field mean 50150.5
field stddev 28954.260337067
field sum 5030095150
field sqrsum 3.3634737239505e+014
field min 1
field max 100300
statistic Basic.rack[5].node[5].app 	"End-to-End Delay"
field count 100300
field mean 2.47050286504e-005
field stddev 2.099855262486e-005
field sum 2.4779143736351
field sqrsum 0.00010544270765229
field min 8.992e-006
field max 0.000274097286
statistic Basic.rack[5].node[5].app 	hops
field count 100300
field mean 4.5034695912263
field stddev 1.5000034649101
field sum 451698
field sqrsum 2259882
field min 3
field max 6
statistic Basic.rack[5].node[6].app 	throughput
field count 99897
field mean 49949
field stddev 28837.924257824
field sum 4989755253
field sqrsum 3.3230938359104e+014
field min 1
field max 99897
statistic Basic.rack[5].node[6].app 	"End-to-End Delay"
field count 99897
field mean 2.4651192091035e-005
field stddev 2.0904980784949e-005
field sum 2.4625801363181
field sqrsum 0.0001043619082468
field min 8.992e-006
field max 0.000271118786
statistic Basic.rack[5].node[6].app 	hops
field count 99897
field mean 4.4960509324604
field stddev 1.5000023093762
field sum 449142
field sqrsum 2244132
field min 3
field max 6
statistic Basic.rack[5].node[7].app 	throughput
field count 100288
field mean 50144.5
field stddev 28950.796235452
field sum 5028891616
field sqrsum 3.3622666455414e+014
field min 1
field max 100288
statistic Basic.rack[5].node[7].app 	"End-to-End Delay"
field count 100288
field mean 2.469696159426e-005
field stddev 2.0930750063231e-005
field sum 2.4768088843651
field sqrsum 0.00010510501735202
field min 8.992e-006
field max 0.000271147959
statistic Basic.rack[5].node[7].app 	hops
field count 100288
field mean 4.5008076738992
field stddev 1.5000072610711
field sum 451377
field sqrsum 2257209
field min 3
field max 6
statistic Basic.rack[5].node[8].app 	throughput
field count 100023
field mean 50012
field stddev 28874.297324784
field sum 5002350276
field sqrsum 3.3356838855432e+014
field min 1
field max 100023
statistic Basic.rack[5].node[8].app 	"End-to-End Delay"
field count 100023
field mean 2.4632689342563e-005
field stddev 2.0753315291266e-005
field sum 2.4638354861111
field sqrsum 0.00010377037908053
field min 8.992e-006
field max 0.000268443626
statistic Basic.rack[5].node[8].app 	hops
field count 100023
field mean 4.5015746378333
field stddev 1.5000066718325
field sum 450261
field sqrsum 2251935
field min 3
field max 6
statistic Basic.rack[5].node[9].app 	throughput
field count 99588
field mean 49794.5
field stddev 28748.723641233
field sum 4958934666
field sqrsum 3.2923524332329e+014
field min 1
field max 99588
statistic Basic.rack[5].node[9].app 	"End-to-End Delay"
field count 99588
field mean 2.4681734862615e-005
field stddev 2.0945135386307e-005
field sum 2.4580046114981
field sqrsum 0.00010435650518556
field min 8.992e-006
field max 0.00027584265
statistic Basic.rack[5].node[9].app 	hops
field count 99588
field mean 4.5012652126762
field stddev 1.5000069974941
field sum 448272
field sqrsum 2241864
field min 3
field max 6
statistic Basic.rack[5].eps.queue[0] 	dropsum
field count 0
field mean nan
field stddev nan
field sum 0
field sqrsum 0
field min nan
field max nan
statistic Basic.rack[5].eps.queue[1] 	dropsum
field count 0
field mean nan
field stddev nan
field sum 0
field sqrsum 0
field min nan
field max nan
statistic Basic.rack[5].eps.queue[2] 	dropsum
field count 0
field mean nan
field stddev nan
field sum 0
field sqrsum 0
field min nan
field max nan
statistic Basic.rack[5].eps.queue[3] 	dropsum
field count 0
field mean nan
field stddev nan
field sum 0
field sqrsum 0
field min nan
field max nan
statistic Basic.rack[6].node[0].app 	throughput
field count 100124
field mean 50062.5
field stddev 28903.453513378
field sum 5012457750
field sqrsum 3.3457988399325e+014
field min 1
field max 100124
statistic Basic.rack[6].node[0].app 	"End-to-End Delay"
field count 100124
field mean 1.7034299672998e-005
field stddev 1.8861032139053e-005
field sum 1.7055422204592
field sqrsum 6.4670326462895e-005
field min 8.496e-007
field max 0.000257295642
statistic Basic.rack[6].node[0].app 	hops
field count 100124
field mean 4.2504993807678
field stddev 0.82753847149592
field sum 425577
field sqrsum 1877481
field min 3
field max 5
statistic Basic.rack[6].node[1].app 	throughput
field count 100936
field mean 50468.5
field stddev 29137.857722672
field sum 5094088516
field sqrsum 3.4278631033016e+014
field min 1
field max 100936
statistic Basic.rack[6].node[1].app 	"End-to-End Delay"
field count 100936
field mean 1.7116401007483e-005
field stddev 1.8857013476884e-005
field sum 1.7276610520913
field sqrsum 6.5462508904387e-005
field min 8.496e-007
field max 0.000252268537
statistic Basic.rack[6].node[1].app 	hops
field count 100936
field mean 4.2558452881034
field stddev 0.82790205869684
field sum 429568
field sqrsum 1897358
field min 3
field max 5
statistic Basic.rack[6].node[2].app 	throughput
field count 100320
field mean 50160.5
field stddev 28960.033839759
field sum 5032101360
field sqrsum 3.3654861632392e+014
field min 1
field max 100320
statistic Basic.rack[6].node[2].app 	"End-to-End Delay"
field count 100320
field mean 1.7101550472631e-005
field stddev 1.8989443599385e-005
field sum 1.7156275434143
field sqrsum 6.5514818918219e-005
field min 8.496e-007
field max 0.000258487999
statistic Basic.rack[6].node[2].app 	hops
field count 100320
field mean 4.2486543062201
field stddev 0.83005139608469
field sum 426225
field sqrsum 1880001
field min 3
field max 5
statistic Basic.rack[6].node[3].app 	throughput
field count 99793
field mean 49897
field stddev 28807.902043826
field sum 4979371321
field sqrsum 3.3127259461481e+014
field min 1
field max 99793
statistic Basic.rack[6].node[3].app 	"End-to-End Delay"
field count 99793
field mean 1.7155995493114e-005
field stddev 1.8948222275803e-005
field sum 1.7120482582443
field sqrsum 6.5200725637253e-005
field min 8.496e-007
field max 0.000260112282
statistic Basic.rack[6].node[3].app 	hops
field count 99793
field mean 4.2529135310092
field stddev 0.82848345449023
field sum 424411
field sqrsum 1873479
field min 3
field max 5
statistic Basic.rack[6].node[4].app 	throughput
field count 99306
field mean 49653.5
field stddev 28667.317253276
field sum 4930890471
field sqrsum 3.2644631637224e+014
field min 1
field max 99306
statistic Basic.rack[6].node[4].app 	"End-to-End Delay"
field count 99306
field mean 1.7085361141999e-005
field stddev 1.8985356721195e-005
field sum 1.6966788735673
field sqrsum 6.4782239859967e-005
field min 8.496e-007
field max 0.000277349822
statistic Basic.rack[6].node[4].app 	hops
field count 99306
field mean 4.2537409622782
field stddev 0.82794111106084
field sum 422422
field sqrsum 1864946
field min 3
field max 5
statistic Basic.rack[6].node[5].app 	throughput
field count 100285
field mean 50143
field stddev 28949.930210048
field sum 5028590755
field sqrsum 3.3619649210704e+014
field min 1
field max 100285
statistic Basic.rack[6].node[5].app 	"End-to-End Delay"
field count 100285
field mean 1.7131024613245e-005
field stddev 1.9064566773359e-005
field sum 1.7179848033393
field sqrsum 6.5879832565349e-005
field min 8.496e-007
field max 0.000266013168
statistic Basic.rack[6].node[5].app 	hops
field count 100285
field mean 4.2543251732562
field stddev 0.82845348250256
field sum 426645
field sqrsum 1883915
field min 3
field max 5
statistic Basic.rack[6].node[6].app 	throughput
field count 100096
field mean 50048.5
field stddev 28895.370609609
field sum 5009654656
field sqrsum 3.3429926484954e+014
field min 1
field max 100096
statistic Basic.rack[6].node[6].app 	"End-to-End Delay"
field count 100096
field mean 1.7010430759533e-005
field stddev 1.8842055923101e-005
field sum 1.7026760773062
field sqrsum 6.4499287851644e-005
field min 8.496e-007
field max 0.000265522188
statistic Basic.rack[6].node[6].app 	hops
field count 100096
field mean 4.2465433184143
field stddev 0.83009844574217
field sum 425062
field sqrsum 1874016
field min 3
field max 5
statistic Basic.rack[6].node[7].app 	throughput
field count 99915
field mean 49958
field stddev 28843.120410247
field sum 4991553570
field sqrsum 3.3248904714889e+014
field min 1
field max 99915
statistic Basic.rack[6].node[7].app 	"End-to-End Delay"
field count 99915
field mean 1.7103233866659e-005
field stddev 1.8841976368783e-005
field sum 1.7088696117873
field sqrsum 6.4698672239881e-005
field min 8.496e-007
field max 0.000246333199
statistic Basic.rack[6].node[7].app 	hops
field count 99915
field mean 4.2488515237952
field stddev 0.83084247270345
field sum 424524
field sqrsum 1872710
field min 3
field max 5
statistic Basic.rack[6].node[8].app 	throughput
field count 100064
field mean 50032.5
field stddev 28886.133005302
field sum 5006452080
field sqrsum 3.3397874943944e+014
field min 1
field max 100064
statistic Basic.rack[6].node[8].app 	"End-to-End Delay"
field count 100064
field mean 1.7000512812123e-005
field stddev 1.8861737716439e-005
field sum 1.7011393140323
field sqrsum 6.4519168876216e-005
field min 8.496e-007
field max 0.000241941768
statistic Basic.rack[6].node[8].app 	hops
field count 100064
field mean 4.2477714262872
field stddev 0.8284489385985
field sum 425049
field sqrsum 1874187
field min 3
field max 5
statistic Basic.rack[6].node[9].app 	throughput
field count 100007
field mean 50004
field stddev 28869.67852263
field sum 5000750028
field sqrsum 3.3340833895014e+014
field min 1
field max 100007
statistic Basic.rack[6].node[9].app 	"End-to-End Delay"
field count 100007
field mean 1.710791274597e-005
field stddev 1.9015789405249e-005
field sum 1.7109110299863
field sqrsum 6.543231088908e-005
field min 8.496e-007
field max 0.00026938893
statistic Basic.rack[6].node[9].app 	hops
field count 100007
field mean 4.2488525803194
field stddev 0.83009440121773
field sum 424915
field sqrsum 1874311
field min 3
field max 5
statistic Basic.rack[6].eps.queue[0] 	dropsum
field count 0
field mean nan
field stddev nan
field sum 0
field sqrsum 0
field min nan
field max nan
statistic Basic.rack[6].eps.queue[1] 	dropsum
field count 0
field mean nan
field stddev nan
field sum 0
field sqrsum 0
field min nan
field max nan
statistic Basic.rack[6].eps.queue[2] 	dropsum
field count 0
field mean nan
field stddev nan
field sum 0
field sqrsum 0
field min nan
field max nan
statistic Basic.rack[6].eps.queue[3] 	dropsum
field count 0
field mean nan
field stddev nan
field sum 0
field sqrsum 0
field min nan
field max nan
statistic Basic.rack[7].node[0].app 	throughput
field count 99889
field mean 49945
field stddev 28835.614856747
field sum 4988956105
field sqrsum 3.3222955390026e+014
field min 1
field max 99889
statistic Basic.rack[7].node[0].app 	"End-to-End Delay"
field count 99889
field mean 1.7028652229677e-005
field stddev 1.8893971549538e-005
field sum 1.7009750425703
field sqrsum 6.4623546540741e-005
field min 8.496e-007
field max 0.00022100805
statistic Basic.rack[7].node[0].app 	hops
field count 99889
field mean 4.2480753636537
field stddev 0.82887659254015
field sum 424336
field sqrsum 1871238
field min 3
field max 5
statistic Basic.rack[7].node[1].app 	throughput
field count 100256
field mean 50128.5
field stddev 28941.558631145
field sum 5025682896
field sqrsum 3.3590491817522e+014
field min 1
field max 100256
statistic Basic.rack[7].node[1].app 	"End-to-End Delay"
field count 100256
field mean 1.7073327961042e-005
field stddev 1.880486516142e-005
field sum 1.7117035680622
field sqrsum 6.4676945616737e-005
field min 8.496e-007
field max 0.000219757307
statistic Basic.rack[7].node[1].app 	hops
field count 100256
field mean 4.25243376955
field stddev 0.82821790737821
field sum 426332
field sqrsum 1881718
field min 3
field max 5
statistic Basic.rack[7].node[2].app 	throughput
field count 99589
field mean 49795
field stddev 28749.012316368
field sum 4959034255
field sqrsum 3.2924516129222e+014
field min 1
field max 99589
statistic Basic.rack[7].node[2].app 	"End-to-End Delay"
field count 99589
field mean 1.7047198838569e-005
field stddev 1.8647314010225e-005
field sum 1.6977134851343
field sqrsum 6.3570229735842e-005
field min 8.496e-007
field max 0.000226990873
statistic Basic.rack[7].node[2].app 	hops
field count 99589
field mean 4.2527889626364
field stddev 0.82965431532777
field sum 423531
field sqrsum 1869737
field min 3
field max 5
statistic Basic.rack[7].node[3].app 	throughput
field count 99728
field mean 49864.5
field stddev 28789.138160077
field sum 4972886856
field sqrsum 3.3062569787906e+014
field min 1
field max 99728
statistic Basic.rack[7].node[3].app 	"End-to-End Delay"
field count 99728
field mean 1.7017207857606e-005
field stddev 1.8672494140711e-005
field sum 1.6970921052233
field sqrsum 6.3650788115357e-005
field min 8.496e-007
field max 0.000214365824
statistic Basic.rack[7].node[3].app 	hops
field count 99728
field mean 4.2506317182737
field stddev 0.82863690892558
field sum 423907
field sqrsum 1870349
field min 3
field max 5
statistic Basic.rack[7].node[4].app 	throughput
field count 100220
field mean 50110.5
field stddev 28931.166326299
field sum 5022074310
field sqrsum 3.3554319892357e+014
field min 1
field max 100220
statistic Basic.rack[7].node[4].app 	"End-to-End Delay"
field count 100220
field mean 1.6957952907287e-005
field stddev 1.8674444672051e-005
field sum 1.6995260403683
field sqrsum 6.3770343877775e-005
field min 8.496e-007
field max 0.00021963332
statistic Basic.rack[7].node[4].app 	hops
field count 100220
field mean 4.2516862901616
field stddev 0.82795735148404
field sum 426104
field sqrsum 1880362
field min 3
field max 5
statistic Basic.rack[7].node[5].app 	throughput
field count 99979
field mean 49990
field stddev 28861.595618861
field sum 4997950210
field sqrsum 3.3312837534713e+014
field min 1
field max 99979
statistic Basic.rack[7].node[5].app 	"End-to-End Delay"
field count 99979
field mean 1.6982163493526e-005
field stddev 1.8601376960454e-005
field sum 1.6978597239193
field sqrsum 6.3426841656215e-005
field min 8.496e-007
field max 0.000201108667
statistic Basic.rack[7].node[5].app 	hops
field count 99979
field mean 4.2511027315736
field stddev 0.82950710502481
field sum 425021
field sqrsum 1875601
field min 3
field max 5
statistic Basic.rack[7].node[6].app 	throughput
field count 100435
field mean 50218
field stddev 28993.231480238
field sum 5043644830
field sqrsum 3.3770732688231e+014
field min 1
field max 100435
statistic Basic.rack[7].node[6].app 	"End-to-End Delay"
field count 100435
field mean 1.6963658618781e-005
field stddev 1.8693920236146e-005
field sum 1.7037450533773
field sqrsum 6.3999681630216e-005
field min 8.496e-007
field max 0.000207397309
statistic Basic.rack[7].node[6].app 	hops
field count 100435
field mean 4.2497933987156
field stddev 0.82825994052233
field sum 426828
field sqrsum 1882830
field min 3
field max 5
statistic Basic.rack[7].node[7].app 	throughput
field count 99256
field mean 49628.5
field stddev 28652.883496546
field sum 4925926396
field sqrsum 3.2595347554972e+014
field min 1
field max 99256
statistic Basic.rack[7].node[7].app 	"End-to-End Delay"
field count 99256
field mean 1.7012823902689e-005
field stddev 1.8836251032593e-005
field sum 1.6886248492853
field sqrsum 6.3944383251925e-005
field min 8.496e-007
field max 0.000215667744
statistic Basic.rack[7].node[7].app 	hops
field count 99256
field mean 4.2510780204723
field stddev 0.82789197038142
field sum 421945
field sqrsum 1861751
field min 3
field max 5
statistic Basic.rack[7].node[8].app 	throughput
field count 99634
field mean 49817.5
field stddev 28762.002697425
field sum 4963516795
field sqrsum 3.2969167607428e+014
field min 1
field max 99634
statistic Basic.rack[7].node[8].app 	"End-to-End Delay"
field count 99634
field mean 1.6963895017276e-005
field stddev 1.8725476408106e-005
field sum 1.6901807161513
field sqrsum 6.3607708747786e-005
field min 8.496e-007
field max 0.000211844356
statistic Basic.rack[7].node[8].app 	hops
field count 99634
field mean 4.2498143204127
field stddev 0.82885614848349
field sum 423426
field sqrsum 1867930
field min 3
field max 5
statistic Basic.rack[7].node[9].app 	throughput
field count 99980
field mean 49990.5
field stddev 28861.884293996
field sum 4998050190
field sqrsum 3.3313837134753e+014
field min 1
field max 99980
statistic Basic.rack[7].node[9].app 	"End-to-End Delay"
field count 99980
field mean 1.701101233708e-005
field stddev 1.8731933694419e-005
field sum 1.7007610134613
field sqrsum 6.4012831983486e-005
field min 8.496e-007
field max 0.000226881353
statistic Basic.rack[7].node[9].app 	hops
field count 99980
field mean 4.2473294658932
field stddev 0.82944851949455
field sum 424648
field sqrsum 1872404
field min 3
field max 5
statistic Basic.rack[7].eps.queue[0] 	dropsum
field count 0
field mean nan
field stddev nan
field sum 0
field sqrsum 0
field min nan
field max nan
statistic Basic.rack[7].eps.queue[1] 	dropsum
field count 0
field mean nan
field stddev nan
field sum 0
field sqrsum 0
field min nan
field max nan
statistic Basic.rack[7].eps.queue[2] 	dropsum
field count 0
field mean nan
field stddev nan
field sum 0
field sqrsum 0
field min nan
field max nan
statistic Basic.rack[7].eps.queue[3] 	dropsum
field count 0
field mean nan
field stddev nan
field sum 0
field sqrsum 0
field min nan
field max nan
statistic Basic.rack[8].node[0].app 	throughput
field count 100231
field mean 50116
field stddev 28934.34175278
field sum 5023176796
field sqrsum 3.3565369668552e+014
field min 1
field max 100231
statistic Basic.rack[8].node[0].app 	"End-to-End Delay"
field count 100231
field mean 2.4586526430367e-005
field stddev 2.0749262021903e-005
field sum 2.4643321306421
field sqrsum 0.00010374157683972
field min 8.992e-006
field max 0.000217584354
statistic Basic.rack[8].node[0].app 	hops
field count 100231
field mean 4.4974109806347
field stddev 1.5000052484177
field sum 450780
field sqrsum 2252862
field min 3
field max 6
statistic Basic.rack[8].node[1].app 	throughput
field count 99722
field mean 49861.5
field stddev 28787.406109269
field sum 4972288503
field sqrsum 3.3056602682694e+014
field min 1
field max 99722
statistic Basic.rack[8].node[1].app 	"End-to-End Delay"
field count 99722
field mean 2.4611717759873e-005
field stddev 2.0812847134959e-005
field sum 2.4543297184501
field sqrsum 0.00010360187519144
field min 8.992e-006
field max 0.000246249783
statistic Basic.rack[8].node[1].app 	hops
field count 99722
field mean 4.5001504181625
field stddev 1.5000075134228
field sum 448764
field sqrsum 2243880
field min 3
field max 6
statistic Basic.rack[8].node[2].app 	throughput
field count 100054
field mean 50027.5
field stddev 28883.246253956
field sum 5005451485
field sqrsum 3.3387863040396e+014
field min 1
field max 100054
statistic Basic.rack[8].node[2].app 	"End-to-End Delay"
field count 100054
field mean 2.4631110267257e-005
field stddev 2.0792497430227e-005
field sum 2.4644411066801
field sqrsum 0.00010395762896572
field min 8.992e-006
field max 0.000230456536
statistic Basic.rack[8].node[2].app 	hops
field count 100054
field mean 4.500929498071
field stddev 1.500007208018
field sum 450336
field sqrsum 2252052
field min 3
field max 6
statistic Basic.rack[8].node[3].app 	throughput
field count 100311
field mean 50156
field stddev 28957.435763548
field sum 5031198516
field sqrsum 3.3645804662516e+014
field min 1
field max 100311
statistic Basic.rack[8].node[3].app 	"End-to-End Delay"
field count 100311
field mean 2.4721577478114e-005
field stddev 2.0868080445471e-005
field sum 2.4798461584071
field sqrsum 0.00010498838488899
field min 8.992e-006
field max 0.000219606061
statistic Basic.rack[8].node[3].app 	hops
field count 100311
field mean 4.5011514190866
field stddev 1.500007034879
field sum 451515
field sqrsum 2258037
field min 3
field max 6
statistic Basic.rack[8].node[4].app 	throughput
field count 99722
field mean 49861.5
field stddev 28787.406109269
field sum 4972288503
field sqrsum 3.3056602682694e+014
field min 1
field max 99722
statistic Basic.rack[8].node[4].app 	"End-to-End Delay"
field count 99722
field mean 2.4613229168629e-005
field stddev 2.080831607281e-005
field sum 2.4544804391541
field sqrsum 0.00010359048821845
field min 8.992e-006
field max 0.000234205228
statistic Basic.rack[8].node[4].app 	hops
field count 99722
field mean 4.499939832735
field stddev 1.500007519758
field sum 448743
field sqrsum 2243691
field min 3
field max 6
statistic Basic.rack[8].node[5].app 	throughput
field count 99916
field mean 49958.5
field stddev 28843.409085381
field sum 4991653486
field sqrsum 3.3249903035595e+014
field min 1
field max 99916
statistic Basic.rack[8].node[5].app 	"End-to-End Delay"
field count 99916
field mean 2.4531552371042e-005
field stddev 2.0631793745627e-005
field sum 2.4510945867051
field sqrsum 0.00010266006450872
field min 8.992e-006
field max 0.000212639973
statistic Basic.rack[8].node[5].app 	hops
field count 99916
field mean 4.496937427439
field stddev 1.5000043798925
field sum 449316
field sqrsum 2245356
field min 3
field max 6
statistic Basic.rack[8].node[6].app 	throughput
field count 100086
field mean 50043.5
field stddev 28892.483858263
field sum 5008653741
field sqrsum 3.3419908176573e+014
field min 1
field max 100086
statistic Basic.rack[8].node[6].app 	"End-to-End Delay"
field count 100086
field mean 2.4684961960275e-005
field stddev 2.0927803940326e-005
field sum 2.4706191027561
field sqrsum 0.00010482166404945
field min 8.992e-006
field max 0.000247349918
statistic Basic.rack[8].node[6].app 	hops
field count 100086
field mean 4.5001498711108
field stddev 1.5000074861245
field sum 450402
field sqrsum 2252070
field min 3
field max 6
statistic Basic.rack[8].node[7].app 	throughput
field count 99859
field mean 49930
field stddev 28826.954602709
field sum 4985959870
field sqrsum 3.3193030642551e+014
field min 1
field max 99859
statistic Basic.rack[8].node[7].app 	"End-to-End Delay"
field count 99859
field mean 2.4566380066685e-005
field stddev 2.0740173165269e-005
field sum 2.4531741470791
field sqrsum 0.00010322000478027
field min 8.992e-006
field max 0.00024247769
statistic Basic.rack[8].node[7].app 	hops
field count 99859
field mean 4.4999549364604
field stddev 1.5000075099694
field sum 449361
field sqrsum 2246787
field min 3
field max 6
statistic Basic.rack[8].node[8].app 	throughput
field count 100427
field mean 50214
field stddev 28990.922079161
field sum 5042841378
field sqrsum 3.3762663499273e+014
field min 1
field max 100427
statistic Basic.rack[8].node[8].app 	"End-to-End Delay"
field count 100427
field mean 2.4614969384838e-005
field stddev 2.087416394182e-005
field sum 2.4720075304111
field sqrsum 0.00010460708299399
field min 8.992e-006
field max 0.000226407303
statistic Basic.rack[8].node[8].app 	hops
field count 100427
field mean 4.4979537375407
field stddev 1.5000060724293
field sum 451716
field sqrsum 2257758
field min 3
field max 6
statistic Basic.rack[8].node[9].app 	throughput
field count 100177
field mean 50089
field stddev 28918.753295512
field sum 5017765753
field sqrsum 3.351114858141e+014
field min 1
field max 100177
statistic Basic.rack[8].node[9].app 	"End-to-End Delay"
field count 100177
field mean 2.4625374048027e-005
field stddev 2.0726137888077e-005
field sum 2.4668960960092
field sqrsum 0.00010378112308875
field min 8.992e-006
field max 0.000219558719
statistic Basic.rack[8].node[9].app 	hops
field count 100177
field mean 4.5016021641694
field stddev 1.5000066311567
field sum 450957
field sqrsum 2255427
field min 3
field max 6
statistic Basic.rack[8].eps.queue[0] 	dropsum
field count 0
field mean nan
field stddev nan
field sum 0
field sqrsum 0
field min nan
field max nan
statistic Basic.rack[8].eps.queue[1] 	dropsum
field count 0
field mean nan
field stddev nan
field sum 0
field sqrsum 0
field min nan
field max nan
statistic Basic.rack[8].eps.queue[2] 	dropsum
field count 0
field mean nan
field stddev nan
field sum 0
field sqrsum 0
field min nan
field max nan
statistic Basic.rack[8].eps.queue[3] 	dropsum
field count 0
field mean nan
field stddev nan
field sum 0
field sqrsum 0
field min nan
field max nan
statistic Basic.rack[9].node[0].app 	throughput
field count 100097
field mean 50049
field stddev 28895.659284744
field sum 5009754753
field sqrsum 3.3430928425894e+014
field min 1
field max 100097
statistic Basic.rack[9].node[0].app 	"End-to-End Delay"
field count 100097
field mean 2.4609156167938e-005
field stddev 2.0711900686506e-005
field sum 2.4633027049421
field sqrsum 0.00010355926631128
field min 8.992e-006
field max 0.00023554026
statistic Basic.rack[9].node[0].app 	hops
field count 100097
field mean 4.4996553343257
field stddev 1.5000074531899
field sum 450402
field sqrsum 2251872
field min 3
field max 6
statistic Basic.rack[9].node[1].app 	throughput
field count 100761
field mean 50381
field stddev 29087.339574117
field sum 5076439941
field sqrsum 3.4100646874338e+014
field min 1
field max 100761
statistic Basic.rack[9].node[1].app 	"End-to-End Delay"
field count 100761
field mean 2.4540606631704e-005
field stddev 2.0694058626265e-005
field sum 2.4727360648171
field sqrsum 0.00010383231480088
field min 8.992e-006
field max 0.000246278514
statistic Basic.rack[9].node[1].app 	hops
field count 100761
field mean 4.4977223330455
field stddev 1.5000057141463
field sum 453195
field sqrsum 2265057
field min 3
field max 6
statistic Basic.rack[9].node[2].app 	throughput
field count 100455
field mean 50228
field stddev 28999.00498293
field sum 5045653740
field sqrsum 3.3790911285238e+014
field min 1
field max 100455
statistic Basic.rack[9].node[2].app 	"End-to-End Delay"
field count 100455
field mean 2.462956604208e-005
field stddev 2.0834704961161e-005
field sum 2.4741630567571
field sqrsum 0.00010454313004573
field min 8.992e-006
field max 0.000230194657
statistic Basic.rack[9].node[2].app 	hops
field count 100455
field mean 4.4970583843512
field stddev 1.5000045817006
field sum 451752
field sqrsum 2257578
field min 3
field max 6
statistic Basic.rack[9].node[3].app 	throughput
field count 99903
field mean 49952
field stddev 28839.656308632
field sum 4990354656
field sqrsum 3.3236926425046e+014
field min 1
field max 99903
statistic Basic.rack[9].node[3].app 	"End-to-End Delay"
field count 99903
field mean 2.4513223120257e-005
field stddev 2.0595585754003e-005
field sum 2.448944529383
field sqrsum 0.000102407769454
field min 8.992e-006
field max 0.000233560565
statistic Basic.rack[9].node[3].app 	hops
field count 99903
field mean 4.4976126843038
field stddev 1.500005607569
field sum 449325
field sqrsum 2245671
field min 3
field max 6
statistic Basic.rack[9].node[4].app 	throughput
field count 100204
field mean 50102.5
field stddev 28926.547524146
field sum 5020470910
field sqrsum 3.3538251820073e+014
field min 1
field max 100204
statistic Basic.rack[9].node[4].app 	"End-to-End Delay"
field count 100204
field mean 2.4593038938836e-005
field stddev 2.0722459218635e-005
field sum 2.4643208738271
field sqrsum 0.00010363434313878
field min 8.992e-006
field max 0.000219781422
statistic Basic.rack[9].node[4].app 	hops
field count 100204
field mean 4.5000598778492
field stddev 1.500007483592
field sum 450924
field sqrsum 2254644
field min 3
field max 6
statistic Basic.rack[9].node[5].app 	throughput
field count 99534
field mean 49767.5
field stddev 28733.135183965
field sum 4953558345
field sqrsum 3.2869996872694e+014
field min 1
field max 99534
statistic Basic.rack[9].node[5].app 	"End-to-End Delay"
field count 99534
field mean 2.47347253817e-005
field stddev 2.0892769203231e-005
field sum 2.4619461561421
field sqrsum 0.00010434249342973
field min 8.992e-006
field max 0.000230153311
statistic Basic.rack[9].node[5].app 	hops
field count 99534
field mean 4.5069021640846
field stddev 1.4999916550502
field sum 448590
field sqrsum 2245698
field min 3
field max 6
statistic Basic.rack[9].node[6].app 	throughput
field count 100094
field mean 50047.5
field stddev 28894.79325934
field sum 5009454465
field sqrsum 3.342792266313e+014
field min 1
field max 100094
statistic Basic.rack[9].node[6].app 	"End-to-End Delay"
field count 100094
field mean 2.4597001525707e-005
field stddev 2.0780860848596e-005
field sum 2.4620122707141
field sqrsum 0.00010378269884845
field min 8.992e-006
field max 0.000218835833
statistic Basic.rack[9].node[6].app 	hops
field count 100094
field mean 4.4962235498631
field stddev 1.5000027391229
field sum 450045
field sqrsum 2248713
field min 3
field max 6
statistic Basic.rack[9].node[7].app 	throughput
field count 99634
field mean 49817.5
field stddev 28762.002697425
field sum 4963516795
field sqrsum 3.2969167607428e+014
field min 1
field max 99634
statistic Basic.rack[9].node[7].app 	"End-to-End Delay"
field count 99634
field mean 2.4527918111649e-005
field stddev 2.0591528495877e-005
field sum 2.4438145931361
field sqrsum 0.00010218717674634
field min 8.992e-006
field max 0.000212300814
statistic Basic.rack[9].node[7].app 	hops
field count 99634
field mean 4.4981030571893
field stddev 1.500006328137
field sum 448164
field sqrsum 2240064
field min 3
field max 6
statistic Basic.rack[9].node[8].app 	throughput
field count 99907
field mean 49954
field stddev 28840.81100917
field sum 4990754278
field sqrsum 3.3240918868619e+014
field min 1
field max 99907
statistic Basic.rack[9].node[8].app 	"End-to-End Delay"
field count 99907
field mean 2.4751422220516e-005
field stddev 2.0916996875259e-005
field sum 2.4728403397851
field sqrsum 0.00010491726421063
field min 8.992e-006
field max 0.00022574076
statistic Basic.rack[9].node[8].app 	hops
field count 99907
field mean 4.5046092866366
field stddev 1.5000004251446
field sum 450042
field sqrsum 2252052
field min 3
field max 6
statistic Basic.rack[9].node[9].app 	throughput
field count 100725
field mean 50363
field stddev 29076.947269272
field sum 5072813175
field sqrsum 3.4064109563898e+014
field min 1
field max 100725
statistic Basic.rack[9].node[9].app 	"End-to-End Delay"
field count 100725
field mean 2.463253692568e-005
field stddev 2.0863186351182e-005
field sum 2.4811122818391
field sqrsum 0.00010495848169396
field min 8.992e-006
field max 0.00023368399
statistic Basic.rack[9].node[9].app 	hops
field count 100725
field mean 4.5039166046165
field stddev 1.5000023327738
field sum 453657
field sqrsum 2269863
field min 3
field max 6
statistic Basic.rack[9].eps.queue[0] 	dropsum
field count 0
field mean nan
field stddev nan
field sum 0
field sqrsum 0
field min nan
field max nan
statistic Basic.rack[9].eps.queue[1] 	dropsum
field count 0
field mean nan
field stddev nan
field sum 0
field sqrsum 0
field min nan
field max nan
statistic Basic.rack[9].eps.queue[2] 	dropsum
field count 0
field mean nan
field stddev nan
field sum 0
field sqrsum 0
field min nan
field max nan
statistic Basic.rack[9].eps.queue[3] 	dropsum
field count 0
field mean nan
field stddev nan
field sum 0
field sqrsum 0
field min nan
field max nan
statistic Basic.rack[10].node[0].app 	throughput
field count 100058
field mean 50029.5
field stddev 28884.400954494
field sum 5005851711
field sqrsum 3.3391867561673e+014
field min 1
field max 100058
statistic Basic.rack[10].node[0].app 	"End-to-End Delay"
field count 100058
field mean 1.6960277899591e-005
field stddev 1.8619887919591e-005
field sum 1.6970114860773
field sqrsum 6.3471570929371e-005
field min 8.496e-007
field max 0.000214119594
statistic Basic.rack[10].node[0].app 	hops
field count 100058
field mean 4.2531631653641
field stddev 0.82834179721043
field sum 425563
field sqrsum 1878643
field min 3
field max 5
statistic Basic.rack[10].node[1].app 	throughput
field count 99028
field mean 49514.5
field stddev 28587.065565858
field sum 4903321906
field sqrsum 3.2371240891221e+014
field min 1
field max 99028
statistic Basic.rack[10].node[1].app 	"End-to-End Delay"
field count 99028
field mean 1.6875989726303e-005
field stddev 1.8567955367802e-005
field sum 1.6711955106163
field sqrsum 6.234451471743e-005
field min 8.496e-007
field max 0.000231221824
statistic Basic.rack[10].node[1].app 	hops
field count 99028
field mean 4.2474754614856
field stddev 0.82947922021085
field sum 420619
field sqrsum 1854703
field min 3
field max 5
statistic Basic.rack[10].node[2].app 	throughput
field count 99770
field mean 49885.5
field stddev 28801.26251573
field sum 4977076335
field sqrsum 3.3104359632074e+014
field min 1
field max 99770
statistic Basic.rack[10].node[2].app 	"End-to-End Delay"
field count 99770
field mean 1.7000072339985e-005
field stddev 1.8714885223644e-005
field sum 1.6960972173603
field sqrsum 6.3777561243604e-005
field min 8.496e-007
field max 0.000202427368
statistic Basic.rack[10].node[2].app 	hops
field count 99770
field mean 4.2519595068658
field stddev 0.8276380452223
field sum 424218
field sqrsum 1872098
field min 3
field max 5
statistic Basic.rack[10].node[3].app 	throughput
field count 99648
field mean 49824.5
field stddev 28766.044149309
field sum 4964911776
field sqrsum 3.2983067407382e+014
field min 1
field max 99648
statistic Basic.rack[10].node[3].app 	"End-to-End Delay"
field count 99648
field mean 1.6967908065654e-005
field stddev 1.871036908929e-005
field sum 1.6908181029263
field sqrsum 6.3573859769198e-005
field min 8.496e-007
field max 0.000204930752
statistic Basic.rack[10].node[3].app 	hops
field count 99648
field mean 4.2465378131021
field stddev 0.82969457213985
field sum 423159
field sqrsum 1865557
field min 3
field max 5
statistic Basic.rack[10].node[4].app 	throughput
field count 100063
field mean 50032
field stddev 28885.844330167
field sum 5006352016
field sqrsum 3.3396873663534e+014
field min 1
field max 100063
statistic Basic.rack[10].node[4].app 	"End-to-End Delay"
field count 100063
field mean 1.6958101749151e-005
field stddev 1.8711877091754e-005
field sum 1.6968785353253
field sqrsum 6.3810981617034e-005
field min 8.496e-007
field max 0.000231149407
statistic Basic.rack[10].node[4].app 	hops
field count 100063
field mean 4.248513436535
field stddev 0.82960560000333
field sum 425119
field sqrsum 1874991
field min 3
field max 5
statistic Basic.rack[10].node[5].app 	throughput
field count 100350
field mean 50175.5
field stddev 28968.694093797
field sum 5035111425
field sqrsum 3.3685063270298e+014
field min 1
field max 100350
statistic Basic.rack[10].node[5].app 	"End-to-End Delay"
field count 100350
field mean 1.6932638176126e-005
field stddev 1.8594633855125e-005
field sum 1.6991902409743
field sqrsum 6.3468484745901e-005
field min 8.496e-007
field max 0.000233281593
statistic Basic.rack[10].node[5].app 	hops
field count 100350
field mean 4.2474439461883
field stddev 0.83039787278947
field sum 426231
field sqrsum 1879589
field min 3
field max 5
statistic Basic.rack[10].node[6].app 	throughput
field count 100061
field mean 50031
field stddev 28885.266979898
field sum 5006151891
field sqrsum 3.3394871162753e+014
field min 1
field max 100061
statistic Basic.rack[10].node[6].app 	"End-to-End Delay"
field count 100061
field mean 1.7001147965444e-005
field stddev 1.8684098484844e-005
field sum 1.7011518665703
field sqrsum 6.3852033946558e-005
field min 8.496e-007
field max 0.000206244874
statistic Basic.rack[10].node[6].app 	hops
field count 100061
field mean 4.2516365017339
field stddev 0.82873298848826
field sum 425423
field sqrsum 1877465
field min 3
field max 5
statistic Basic.rack[10].node[7].app 	throughput
field count 99948
field mean 49974.5
field stddev 28852.646689689
field sum 4994851326
field sqrsum 3.3281859850447e+014
field min 1
field max 99948
statistic Basic.rack[10].node[7].app 	"End-to-End Delay"
field count 99948
field mean 1.7044514414328e-005
field stddev 1.8868739460874e-005
field sum 1.7035651266833
field sqrsum 6.4620503687304e-005
field min 8.496e-007
field max 0.000221495296
statistic Basic.rack[10].node[7].app 	hops
field count 99948
field mean 4.2468283507424
field stddev 0.82933224682206
field sum 424462
field sqrsum 1871360
field min 3
field max 5
statistic Basic.rack[10].node[8].app 	throughput
field count 99482
field mean 49741.5
field stddev 28718.124076966
field sum 4948383903
field sqrsum 3.2818506775346e+014
field min 1
field max 99482
statistic Basic.rack[10].node[8].app 	"End-to-End Delay"
field count 99482
field mean 1.6983296456448e-005
field stddev 1.8611680294073e-005
field sum 1.6895322980803
field sqrsum 6.3153513408011e-005
field min 8.496e-007
field max 0.000234355406
statistic Basic.rack[10].node[8].app 	hops
field count 99482
field mean 4.2547496029432
field stddev 0.82792896955668
field sum 423271
field sqrsum 1869103
field min 3
field max 5
statistic Basic.rack[10].node[9].app 	throughput
field count 99449
field mean 49725
field stddev 28708.597797524
field sum 4945101525
field sqrsum 3.2785858274032e+014
field min 1
field max 99449
statistic Basic.rack[10].node[9].app 	"End-to-End Delay"
field count 99449
field mean 1.7233697135952e-005
field stddev 1.8948710202154e-005
field sum 1.7138739464733
field sqrsum 6.5243548757927e-005
field min 8.496e-007
field max 0.000224539592
statistic Basic.rack[10].node[9].app 	hops
field count 99449
field mean 4.2558095104023
field stddev 0.82948179098952
field sum 423236
field sqrsum 1869636
field min 3
field max 5
statistic Basic.rack[10].eps.queue[0] 	dropsum
field count 0
field mean nan
field stddev nan
field sum 0
field sqrsum 0
field min nan
field max nan
statistic Basic.rack[10].eps.queue[1] 	dropsum
field count 0
field mean nan
field stddev nan
field sum 0
field sqrsum 0
field min nan
field max nan
statistic Basic.rack[10].eps.queue[2] 	dropsum
field count 0
field mean nan
field stddev nan
field sum 0
field sqrsum 0
field min nan
field max nan
statistic Basic.rack[10].eps.queue[3] 	dropsum
field count 0
field mean nan
field stddev nan
field sum 0
field sqrsum 0
field min nan
field max nan
statistic Basic.rack[11].node[0].app 	throughput
field count 100347
field mean 50174
field stddev 28967.828068393
field sum 5034810378
field sqrsum 3.3682042293757e+014
field min 1
field max 100347
statistic Basic.rack[11].node[0].app 	"End-to-End Delay"
field count 100347
field mean 1.7162941122079e-005
field stddev 1.9010476905452e-005
field sum 1.7222496527773
field sqrsum 6.5823736393743e-005
field min 8.496e-007
field max 0.000225899384
statistic Basic.rack[11].node[0].app 	hops
field count 100347
field mean 4.2485774362961
field stddev 0.8307268346544
field sum 426332
field sqrsum 1880554
field min 3
field max 5
statistic Basic.rack[11].node[1].app 	throughput
field count 99868
field mean 49934.5
field stddev 28829.552678921
field sum 4986858646
field sqrsum 3.3202006179203e+014
field min 1
field max 99868
statistic Basic.rack[11].node[1].app 	"End-to-End Delay"
field count 99868
field mean 1.7093376620332e-005
field stddev 1.8949671943574e-005
field sum 1.7070813363193
field sqrsum 6.5041031901272e-005
field min 8.496e-007
field max 0.00026349621
statistic Basic.rack[11].node[1].app 	hops
field count 99868
field mean 4.2463151359795
field stddev 0.82953852118556
field sum 424071
field sqrsum 1869461
field min 3
field max 5
statistic Basic.rack[11].node[2].app 	throughput
field count 100393
field mean 50197
field stddev 28981.107124585
field sum 5039427421
field sqrsum 3.3728383786011e+014
field min 1
field max 100393
statistic Basic.rack[11].node[2].app 	"End-to-End Delay"
[...]
field count 100733
field mean 50367
field stddev 29079.256670348
field sum 5073619011
field sqrsum 3.4072226709638e+014
field min 1
field max 100733
statistic Basic.rack[13].node[2].app 	"End-to-End Delay"
field count 100733
field mean 2.4718708593749e-005
field stddev 2.0968518520225e-005
field sum 2.4899896727741
field sqrsum 0.00010583905087491
field min 8.992e-006
field max 0.000237550175
statistic Basic.rack[13].node[2].app 	hops
field count 100733
field mean 4.4987640594443
field stddev 1.5000069362948
field sum 453174
field sqrsum 2265372
field min 3
field max 6
statistic Basic.rack[13].node[3].app 	throughput
field count 100229
field mean 50115
field stddev 28933.764402511
field sum 5022976335
field sqrsum 3.3563360437926e+014
field min 1
field max 100229
statistic Basic.rack[13].node[3].app 	"End-to-End Delay"
field count 100229
field mean 2.4646145647399e-005
field stddev 2.0969937815363e-005
field sum 2.4702585320931
field sqrsum 0.00010495644109729
field min 8.992e-006
field max 0.000237626692
statistic Basic.rack[13].node[3].app 	hops
field count 100229
field mean 4.4931606620838
field stddev 1.4999918905804
field sum 450345
field sqrsum 2248983
field min 3
field max 6
statistic Basic.rack[13].node[4].app 	throughput
field count 100188
field mean 50094.5
field stddev 28921.928721992
field sum 5018867766
field sqrsum 3.3522188878259e+014
field min 1
field max 100188
statistic Basic.rack[13].node[4].app 	"End-to-End Delay"
field count 100188
field mean 2.4738714215755e-005
field stddev 2.0959492382076e-005
field sum 2.4785222998481
field sqrsum 0.00010532763610476
field min 8.992e-006
field max 0.000214323569
statistic Basic.rack[13].node[4].app 	hops
field count 100188
field mean 4.4992214636483
field stddev 1.5000072839419
field sum 450768
field sqrsum 2253528
field min 3
field max 6
statistic Basic.rack[13].node[5].app 	throughput
field count 99786
field mean 49893.5
field stddev 28805.881317884
field sum 4978672791
field sqrsum 3.3120288830608e+014
field min 1
field max 99786
statistic Basic.rack[13].node[5].app 	"End-to-End Delay"
field count 99786
field mean 2.4768561000913e-005
field stddev 2.1004980901862e-005
field sum 2.4715556280371
field sqrsum 0.00010524293862607
field min 8.992e-006
field max 0.000231191996
statistic Basic.rack[13].node[5].app 	hops
field count 99786
field mean 4.4995790992724
field stddev 1.5000074570881
field sum 448995
field sqrsum 2244807
field min 3
field max 6
statistic Basic.rack[13].node[6].app 	throughput
field count 100008
field mean 50004.5
field stddev 28869.967197765
field sum 5000850036
field sqrsum 3.334183405502e+014
field min 1
field max 100008
statistic Basic.rack[13].node[6].app 	"End-to-End Delay"
field count 100008
field mean 2.4832937942976e-005
field stddev 2.1094804747429e-005
field sum 2.4834924578012
field sqrsum 0.00010617460775515
field min 8.992e-006
field max 0.000233039651
statistic Basic.rack[13].node[6].app 	hops
field count 100008
field mean 4.4987101031917
field stddev 1.5000069448422
field sum 449907
field sqrsum 2249019
field min 3
field max 6
statistic Basic.rack[13].node[7].app 	throughput
field count 100703
field mean 50352
field stddev 29070.59641631
field sum 5070597456
field sqrsum 3.4041794060686e+014
field min 1
field max 100703
statistic Basic.rack[13].node[7].app 	"End-to-End Delay"
field count 100703
field mean 2.47157083914e-005
field stddev 2.0874822238197e-005
field sum 2.4889459821391
field sqrsum 0.00010539778570297
field min 8.992e-006
field max 0.000232651
statistic Basic.rack[13].node[7].app 	hops
field count 100703
field mean 4.5007894501653
field stddev 1.5000072399536
field sum 453243
field sqrsum 2266533
field min 3
field max 6
statistic Basic.rack[13].node[8].app 	throughput
field count 100449
field mean 50225
field stddev 28997.272932122
field sum 5045051025
field sqrsum 3.3784856862382e+014
field min 1
field max 100449
statistic Basic.rack[13].node[8].app 	"End-to-End Delay"
field count 100449
field mean 2.4741837015741e-005
field stddev 2.0973069794489e-005
field sum 2.4852927863941
field sqrsum 0.00010567473632397
field min 8.992e-006
field max 0.000238565965
statistic Basic.rack[13].node[8].app 	hops
field count 100449
field mean 4.495803840755
field stddev 1.5000015972398
field sum 451599
field sqrsum 2256309
field min 3
field max 6
statistic Basic.rack[13].node[9].app 	throughput
field count 99807
field mean 49904
field stddev 28811.94349571
field sum 4980768528
field sqrsum 3.3141203657224e+014
field min 1
field max 99807
statistic Basic.rack[13].node[9].app 	"End-to-End Delay"
field count 99807
field mean 2.4786360853008e-005
field stddev 2.1128599964254e-005
field sum 2.4738523176562
field sqrsum 0.00010587296484655
field min 8.992e-006
field max 0.000219562368
statistic Basic.rack[13].node[9].app 	hops
field count 99807
field mean 4.5010069434008
field stddev 1.5000071765794
field sum 449232
field sqrsum 2246562
field min 3
field max 6
statistic Basic.rack[13].eps.queue[0] 	dropsum
field count 0
field mean nan
field stddev nan
field sum 0
field sqrsum 0
field min nan
field max nan
statistic Basic.rack[13].eps.queue[1] 	dropsum
field count 0
field mean nan
field stddev nan
field sum 0
field sqrsum 0
field min nan
field max nan
statistic Basic.rack[13].eps.queue[2] 	dropsum
field count 0
field mean nan
field stddev nan
field sum 0
field sqrsum 0
field min nan
field max nan
statistic Basic.rack[13].eps.queue[3] 	dropsum
field count 0
field mean nan
field stddev nan
field sum 0
field sqrsum 0
field min nan
field max nan
statistic Basic.rack[14].node[0].app 	throughput
field count 99946
field mean 49973.5
field stddev 28852.069339419
field sum 4994651431
field sqrsum 3.3279861949896e+014
field min 1
field max 99946
statistic Basic.rack[14].node[0].app 	"End-to-End Delay"
field count 99946
field mean 1.7154651411865e-005
field stddev 1.9005978781816e-005
field sum 1.7145387900103
field sqrsum 6.5515170722612e-005
field min 8.496e-007
field max 0.000224032227
statistic Basic.rack[14].node[0].app 	hops
field count 99946
field mean 4.25188601845
field stddev 0.82788565751514
field sum 424959
field sqrsum 1875379
field min 3
field max 5
statistic Basic.rack[14].node[1].app 	throughput
field count 100189
field mean 50095
field stddev 28922.217397127
field sum 5018967955
field sqrsum 3.3523192661832e+014
field min 1
field max 100189
statistic Basic.rack[14].node[1].app 	"End-to-End Delay"
field count 100189
field mean 1.7220169859917e-005
field stddev 1.9068557822005e-005
field sum 1.7252715980953
field sqrsum 6.6138818375518e-005
field min 8.496e-007
field max 0.000215362948
statistic Basic.rack[14].node[1].app 	hops
field count 100189
field mean 4.2493786743056
field stddev 0.83041334042197
field sum 425741
field sqrsum 1878223
field min 3
field max 5
statistic Basic.rack[14].node[2].app 	throughput
field count 99872
field mean 49936.5
field stddev 28830.707379459
field sum 4987258128
field sqrsum 3.3205995825912e+014
field min 1
field max 99872
statistic Basic.rack[14].node[2].app 	"End-to-End Delay"
field count 99872
field mean 1.7191147141574e-005
field stddev 1.8975945725215e-005
field sum 1.7169142473233
field sqrsum 6.5477925911246e-005
field min 8.496e-007
field max 0.00025280658
statistic Basic.rack[14].node[2].app 	hops
field count 99872
field mean 4.2525933194489
field stddev 0.82822289444494
field sum 424715
field sqrsum 1874647
field min 3
field max 5
statistic Basic.rack[14].node[3].app 	throughput
field count 100239
field mean 50120
field stddev 28936.651153857
field sum 5023978680
field sqrsum 3.3573407392924e+014
field min 1
field max 100239
statistic Basic.rack[14].node[3].app 	"End-to-End Delay"
field count 100239
field mean 1.7160704845462e-005
field stddev 1.9047736729622e-005
field sum 1.7201718930043
field sqrsum 6.5887339864742e-005
field min 8.496e-007
field max 0.000235332288
statistic Basic.rack[14].node[3].app 	hops
field count 100239
field mean 4.2476481209908
field stddev 0.82962986352611
field sum 425780
field sqrsum 1877556
field min 3
field max 5
statistic Basic.rack[14].node[4].app 	throughput
field count 99868
field mean 49934.5
field stddev 28829.552678921
field sum 4986858646
field sqrsum 3.3202006179203e+014
field min 1
field max 99868
statistic Basic.rack[14].node[4].app 	"End-to-End Delay"
field count 99868
field mean 1.718367130081e-005
field stddev 1.9021817769682e-005
field sum 1.7160988854693
field sqrsum 6.5623710963571e-005
field min 8.496e-007
field max 0.000242377008
statistic Basic.rack[14].node[4].app 	hops
field count 99868
field mean 4.2543557495895
field stddev 0.82779219710323
field sum 424874
field sqrsum 1875998
field min 3
field max 5
statistic Basic.rack[14].node[5].app 	throughput
field count 100543
field mean 50272
field stddev 29024.408394775
field sum 5054497696
field sqrsum 3.3879792606518e+014
field min 1
field max 100543
statistic Basic.rack[14].node[5].app 	"End-to-End Delay"
field count 100543
field mean 1.7105947760493e-005
field stddev 1.8970735132129e-005
field sum 1.7198833056833
field sqrsum 6.5604172851469e-005
field min 8.496e-007
field max 0.000209113508
statistic Basic.rack[14].node[5].app 	hops
field count 100543
field mean 4.246461712899
field stddev 0.82931244597109
field sum 426952
field sqrsum 1882184
field min 3
field max 5
statistic Basic.rack[14].node[6].app 	throughput
field count 99865
field mean 49933
field stddev 28828.686653517
field sum 4986559045
field sqrsum 3.3199014153896e+014
field min 1
field max 99865
statistic Basic.rack[14].node[6].app 	"End-to-End Delay"
field count 99865
field mean 1.7128197740122e-005
field stddev 1.8905069668849e-005
field sum 1.7105074673173
field sqrsum 6.4989469428918e-005
field min 8.496e-007
field max 0.000212963361
statistic Basic.rack[14].node[6].app 	hops
field count 99865
field mean 4.247814549642
field stddev 0.82897856104543
field sum 424208
field sqrsum 1870584
field min 3
field max 5
statistic Basic.rack[14].node[7].app 	throughput
field count 100312
field mean 50156.5
field stddev 28957.724438682
field sum 5031298828
field sqrsum 3.364681091225e+014
field min 1
field max 100312
statistic Basic.rack[14].node[7].app 	"End-to-End Delay"
field count 100312
field mean 1.7169250797883e-005
field stddev 1.9116101813494e-005
field sum 1.7222818860373
field sqrsum 6.6226471783811e-005
field min 8.496e-007
field max 0.000254765147
statistic Basic.rack[14].node[7].app 	hops
field count 100312
field mean 4.2510567030864
field stddev 0.82976659711694
field sum 426432
field sqrsum 1881852
field min 3
field max 5
statistic Basic.rack[14].node[8].app 	throughput
field count 99779
field mean 49890
field stddev 28803.860591941
field sum 4977974310
field sqrsum 3.3113319177643e+014
field min 1
field max 99779
statistic Basic.rack[14].node[8].app 	"End-to-End Delay"
field count 99779
field mean 1.7137652389624e-005
field stddev 1.891125696605e-005
field sum 1.7099778177843
field sqrsum 6.4989174326663e-005
field min 8.496e-007
field max 0.000230007965
statistic Basic.rack[14].node[8].app 	hops
field count 99779
field mean 4.2466651299372
field stddev 0.8309534595434
field sum 423728
field sqrsum 1868326
field min 3
field max 5
statistic Basic.rack[14].node[9].app 	throughput
field count 100009
field mean 50005
field stddev 28870.255872899
field sum 5000950045
field sqrsum 3.3342834235028e+014
field min 1
field max 100009
statistic Basic.rack[14].node[9].app 	"End-to-End Delay"
field count 100009
field mean 1.7150791720338e-005
field stddev 1.8963668793079e-005
field sum 1.7152335291593
field sqrsum 6.5382563385585e-005
field min 8.496e-007
field max 0.000215631352
statistic Basic.rack[14].node[9].app 	hops
field count 100009
field mean 4.2506974372306
field stddev 0.82998194494532
field sum 425108
field sqrsum 1875898
field min 3
field max 5
statistic Basic.rack[14].eps.queue[0] 	dropsum
field count 0
field mean nan
field stddev nan
field sum 0
field sqrsum 0
field min nan
field max nan
statistic Basic.rack[14].eps.queue[1] 	dropsum
field count 0
field mean nan
field stddev nan
field sum 0
field sqrsum 0
field min nan
field max nan
statistic Basic.rack[14].eps.queue[2] 	dropsum
field count 0
field mean nan
field stddev nan
field sum 0
field sqrsum 0
field min nan
field max nan
statistic Basic.rack[14].eps.queue[3] 	dropsum
field count 0
field mean nan
field stddev nan
field sum 0
field sqrsum 0
field min nan
field max nan
statistic Basic.rack[15].node[0].app 	throughput
field count 100049
field mean 50025
field stddev 28881.802878283
field sum 5004951225
field sqrsum 3.3382857839042e+014
field min 1
field max 100049
statistic Basic.rack[15].node[0].app 	"End-to-End Delay"
field count 100049
field mean 1.7025857114457e-005
field stddev 1.8806362185005e-005
field sum 1.7034199784443
field sqrsum 6.4387087626677e-005
field min 8.496e-007
field max 0.000315525422
statistic Basic.rack[15].node[0].app 	hops
field count 100049
field mean 4.247538706034
field stddev 0.83025519492084
field sum 424962
field sqrsum 1874008
field min 3
field max 5
statistic Basic.rack[15].node[1].app 	throughput
field count 100092
field mean 50046.5
field stddev 28894.215909071
field sum 5009254278
field sqrsum 3.3425918921381e+014
field min 1
field max 100092
statistic Basic.rack[15].node[1].app 	"End-to-End Delay"
field count 100092
field mean 1.6968093013411e-005
field stddev 1.8738371993216e-005
field sum 1.6983703658983
field sqrsum 6.3962717354627e-005
field min 8.496e-007
field max 0.000297596596
statistic Basic.rack[15].node[1].app 	hops
field count 100092
field mean 4.2491607720897
field stddev 0.83000294674007
field sum 425307
field sqrsum 1876151
field min 3
field max 5
statistic Basic.rack[15].node[2].app 	throughput
field count 99683
field mean 49842
field stddev 28776.14777902
field sum 4968400086
field sqrsum 3.3017833998185e+014
field min 1
field max 99683
statistic Basic.rack[15].node[2].app 	"End-to-End Delay"
field count 99683
field mean 1.7009824787158e-005
field stddev 1.8930705035225e-005
field sum 1.6955903642583
field sqrsum 6.4564892153282e-005
field min 8.496e-007
field max 0.000289803243
statistic Basic.rack[15].node[2].app 	hops
field count 99683
field mean 4.2464813458664
field stddev 0.83061029256652
field sum 423302
field sqrsum 1866316
field min 3
field max 5
statistic Basic.rack[15].node[3].app 	throughput
field count 100081
field mean 50041
field stddev 28891.04048259
field sum 5008153321
field sqrsum 3.3414899773044e+014
field min 1
field max 100081
statistic Basic.rack[15].node[3].app 	"End-to-End Delay"
field count 100081
field mean 1.7114869700046e-005
field stddev 1.8900909387726e-005
field sum 1.7128732744503
field sqrsum 6.5068620023263e-005
field min 8.496e-007
field max 0.000211017187
statistic Basic.rack[15].node[3].app 	hops
field count 100081
field mean 4.249577841948
field stddev 0.83037872298088
field sum 425302
field sqrsum 1876362
field min 3
field max 5
statistic Basic.rack[15].node[4].app 	throughput
field count 100405
field mean 50203
field stddev 28984.5712262
field sum 5040632215
field sqrsum 3.3740479857546e+014
field min 1
field max 100405
statistic Basic.rack[15].node[4].app 	"End-to-End Delay"
field count 100405
field mean 1.7117506623318e-005
field stddev 1.8942709284253e-005
field sum 1.7186832525142
field sqrsum 6.5447161260024e-005
field min 8.496e-007
field max 0.000278431094
statistic Basic.rack[15].node[4].app 	hops
field count 100405
field mean 4.2526666998655
field stddev 0.82838316105446
field sum 426989
field sqrsum 1884741
field min 3
field max 5
statistic Basic.rack[15].node[5].app 	throughput
field count 100554
field mean 50277.5
field stddev 29027.583821255
field sum 5055603735
field sqrsum 3.389091371807e+014
field min 1
field max 100554
statistic Basic.rack[15].node[5].app 	"End-to-End Delay"
field count 100554
field mean 1.7013834938095e-005
field stddev 1.8906139317202e-005
field sum 1.7108091583652
field sqrsum 6.5049300502599e-005
field min 8.496e-007
field max 0.000292876069
statistic Basic.rack[15].node[5].app 	hops
field count 100554
field mean 4.2487718042047
field stddev 0.82927484589843
field sum 427231
field sqrsum 1884357
field min 3
field max 5
statistic Basic.rack[15].node[6].app 	throughput
field count 99995
field mean 49998
field stddev 28866.214421015
field sum 4999550010
field sqrsum 3.3328833534997e+014
field min 1
field max 99995
statistic Basic.rack[15].node[6].app 	"End-to-End Delay"
field count 99995
field mean 1.7038853524359e-005
field stddev 1.8907527043581e-005
field sum 1.7038001581683
field sqrsum 6.4778114252708e-005
field min 8.496e-007
field max 0.000299084171
statistic Basic.rack[15].node[6].app 	hops
field count 99995
field mean 4.2508725436272
field stddev 0.82778452953611
field sum 425066
field sqrsum 1875420
field min 3
field max 5
statistic Basic.rack[15].node[7].app 	throughput
field count 99909
field mean 49955
field stddev 28841.388359439
field sum 4990954095
field sqrsum 3.3242915210294e+014
field min 1
field max 99909
statistic Basic.rack[15].node[7].app 	"End-to-End Delay"
field count 99909
field mean 1.7107872915206e-005
field stddev 1.8954708304701e-005
field sum 1.7092304750853
field sqrsum 6.513634059323e-005
field min 8.496e-007
field max 0.000278753034
statistic Basic.rack[15].node[7].app 	hops
field count 99909
field mean 4.2483760221802
field stddev 0.82976437516974
field sum 424451
field sqrsum 1872015
field min 3
field max 5
statistic Basic.rack[15].node[8].app 	throughput
field count 99589
field mean 49795
field stddev 28749.012316368
field sum 4959034255
field sqrsum 3.2924516129222e+014
field min 1
field max 99589
statistic Basic.rack[15].node[8].app 	"End-to-End Delay"
field count 99589
field mean 1.7044459119524e-005
field stddev 1.8822497927341e-005
field sum 1.6974406392543
field sqrsum 6.4214634397636e-005
field min 8.496e-007
field max 0.00026529927
statistic Basic.rack[15].node[8].app 	hops
field count 99589
field mean 4.2502987277711
field stddev 0.82889610894085
field sum 423283
field sqrsum 1867503
field min 3
field max 5
statistic Basic.rack[15].node[9].app 	throughput
field count 99666
field mean 49833.5
field stddev 28771.240301732
field sum 4966705611
field sqrsum 3.3000944318582e+014
field min 1
field max 99666
statistic Basic.rack[15].node[9].app 	"End-to-End Delay"
field count 99666
field mean 1.7109727309336e-005
field stddev 1.8992652469789e-005
field sum 1.7052580820123
field sqrsum 6.5127744075065e-005
field min 8.496e-007
field max 0.0003186144
statistic Basic.rack[15].node[9].app 	hops
field count 99666
field mean 4.2518311159272
field stddev 0.82929294761856
field sum 423763
field sqrsum 1870311
field min 3
field max 5
statistic Basic.rack[15].eps.queue[0] 	dropsum
field count 0
field mean nan
field stddev nan
field sum 0
field sqrsum 0
field min nan
field max nan
statistic Basic.rack[15].eps.queue[1] 	dropsum
field count 0
field mean nan
field stddev nan
field sum 0
field sqrsum 0
field min nan
field max nan
statistic Basic.rack[15].eps.queue[2] 	dropsum
field count 0
field mean nan
field stddev nan
field sum 0
field sqrsum 0
field min nan
field max nan
statistic Basic.rack[15].eps.queue[3] 	dropsum
field count 0
field mean nan
field stddev nan
field sum 0
field sqrsum 0
field min nan
field max nan
