version 2
run Basic-64-20180510-19:13:38-13384
attr configname Basic
attr datetime 20180510-19:13:38
attr experiment Basic
attr inifile omnetpp.ini
attr iterationvars "$0=exponential(0.05 ms), $1=4, $2=2"
attr iterationvarsf exponential(0.05_ms),4,2-
attr measurement "$0=exponential(0.05 ms), $1=4, $2=2"
attr network Networks.Basic
attr processid 13384
attr repetition 0
attr replication #0
attr resultdir results
attr runnumber 64
attr seedset 64
param **.frameCapacity 50
param **.packetLength "1024 bytes"
param **.pattern 4
param **.sendIaTime "exponential(0.05 ms)"
param **.tp 2

statistic Basic.rack[0].node[0].app 	throughput
field count 38368
field mean 19184.5
field stddev 11076.031900761
field sum 736070896
field sqrsum 18827957448784
field min 1
field max 38368
statistic Basic.rack[0].node[0].app 	"End-to-End Delay"
field count 38368
field mean 0.00070706095746661
field stddev 0.00030452058459083
field sum 27.128514816079
field sqrsum 0.02273939247783
field min 2.3845436e-005
field max 0.001256605004
statistic Basic.rack[0].node[0].app 	hops
field count 38368
field mean 5.1617493744787
field stddev 0.79002208291598
field sum 198046
field sqrsum 1046210
field min 4
field max 6
statistic Basic.rack[0].node[1].app 	throughput
field count 38347
field mean 19174
field stddev 11069.969722934
field sum 735265378
field sqrsum 18797059388570
field min 1
field max 38347
statistic Basic.rack[0].node[1].app 	"End-to-End Delay"
field count 38347
field mean 0.00070633935676325
field stddev 0.0003040550171266
field sum 27.0859953138
field sqrsum 0.022676971248847
field min 0.000160865516
field max 0.001256607181
statistic Basic.rack[0].node[1].app 	hops
field count 38347
field mean 5.1635851565963
field stddev 0.7891262508177
field sum 198008
field sqrsum 1046310
field min 4
field max 6
statistic Basic.rack[0].node[2].app 	throughput
field count 38326
field mean 19163.5
field stddev 11063.907545107
field sum 734460301
field sqrsum 18766195150851
field min 1
field max 38326
statistic Basic.rack[0].node[2].app 	"End-to-End Delay"
field count 38326
field mean 0.00070487946293607
field stddev 0.00030298057355934
field sum 27.015210296488
field sqrsum 0.022560595686244
field min 0.000159908527
field max 0.00125660687
statistic Basic.rack[0].node[2].app 	hops
field count 38326
field mean 5.1641444450243
field stddev 0.78794517205479
field sum 197921
field sqrsum 1045887
field min 4
field max 6
statistic Basic.rack[0].node[3].app 	throughput
field count 38124
field mean 19062.5
field stddev 11005.595167913
field sum 726738750
field sqrsum 18471034316250
field min 1
field max 38124
statistic Basic.rack[0].node[3].app 	"End-to-End Delay"
field count 38124
field mean 0.00070496642023326
field stddev 0.00030485965924155
field sum 26.876139804973
field sqrsum 0.022489905265305
field min 4.9864846e-005
field max 0.001256605431
statistic Basic.rack[0].node[3].app 	hops
field count 38124
field mean 5.1611058650719
field stddev 0.79268366702885
field sum 196762
field sqrsum 1039464
field min 4
field max 6
statistic Basic.rack[0].node[4].app 	throughput
field count 38220
field mean 19110.5
field stddev 11033.307980837
field sum 730403310
field sqrsum 18610919806570
field min 1
field max 38220
statistic Basic.rack[0].node[4].app 	"End-to-End Delay"
field count 38220
field mean 0.00070517533050358
field stddev 0.00030435370901704
field sum 26.951801131847
field sqrsum 0.022546016346591
field min 0.000218833687
field max 0.001256603946
statistic Basic.rack[0].node[4].app 	hops
field count 38220
field mean 5.1573521716379
field stddev 0.79226889258788
field sum 197114
field sqrsum 1040576
field min 4
field max 6
statistic Basic.rack[0].node[5].app 	throughput
field count 38176
field mean 19088.5
field stddev 11020.606274914
field sum 728722576
field sqrsum 18546718281776
field min 1
field max 38176
statistic Basic.rack[0].node[5].app 	"End-to-End Delay"
field count 38176
field mean 0.00070661235736798
field stddev 0.00030334434241502
field sum 26.97563335488
field sqrsum 0.022574095012507
field min 4.0514142e-005
field max 0.001256607282
statistic Basic.rack[0].node[5].app 	hops
field count 38176
field mean 5.1623795054484
field stddev 0.78743254836502
field sum 197079
field sqrsum 1041067
field min 4
field max 6
statistic Basic.rack[0].node[6].app 	throughput
field count 38370
field mean 19185.5
field stddev 11076.60925103
field sum 736147635
field sqrsum 18830901885845
field min 1
field max 38370
statistic Basic.rack[0].node[6].app 	"End-to-End Delay"
field count 38370
field mean 0.00070605462756281
field stddev 0.00030435711471619
field sum 27.091316059585
field sqrsum 0.022682194365674
field min 0.000385271675
field max 0.001256607375
statistic Basic.rack[0].node[6].app 	hops
field count 38370
field mean 5.1658326817826
field stddev 0.78966529954385
field sum 198213
field sqrsum 1047861
field min 4
field max 6
statistic Basic.rack[0].node[7].app 	throughput
field count 37877
field mean 18939
field stddev 10934.292409662
field sum 717352503
field sqrsum 18114346288255
field min 1
field max 37877
statistic Basic.rack[0].node[7].app 	"End-to-End Delay"
field count 37877
field mean 0.0007033692319502
field stddev 0.00030259709711839
field sum 26.641516398578
field sqrsum 0.022206938987872
field min 0.000304417788
field max 0.001256607814
statistic Basic.rack[0].node[7].app 	hops
field count 37877
field mean 5.1603611690472
field stddev 0.78942420539877
field sum 195459
field sqrsum 1032243
field min 4
field max 6
statistic Basic.rack[0].node[8].app 	throughput
field count 38505
field mean 19253
field stddev 11115.580394203
field sum 741336765
field sqrsum 19030361869805
field min 1
field max 38505
statistic Basic.rack[0].node[8].app 	"End-to-End Delay"
field count 38505
field mean 0.00070779327875009
field stddev 0.00030508994481951
field sum 27.253580198272
field sqrsum 0.022873848371265
field min 0.000249923087
field max 0.001256607212
statistic Basic.rack[0].node[8].app 	hops
field count 38505
field mean 5.1672510063628
field stddev 0.78931848664479
field sum 198965
field sqrsum 1052091
field min 4
field max 6
statistic Basic.rack[0].node[9].app 	throughput
field count 38309
field mean 19155
field stddev 11059.000067818
field sum 733808895
field sqrsum 18741234575335
field min 1
field max 38309
statistic Basic.rack[0].node[9].app 	"End-to-End Delay"
field count 38309
field mean 0.00070603891791866
field stddev 0.00030428939980436
field sum 27.047644906546
field sqrsum 0.022643705765692
field min 4.5010037e-005
field max 0.001256607474
statistic Basic.rack[0].node[9].app 	hops
field count 38309
field mean 5.1589443733848
field stddev 0.7908778843038
field sum 197634
field sqrsum 1043544
field min 4
field max 6
statistic Basic.rack[0].eps.queue[0] 	dropsum
field count 0
field mean nan
field stddev nan
field sum 0
field sqrsum 0
field min nan
field max nan
statistic Basic.rack[0].eps.queue[1] 	dropsum
field count 1007845
field mean 503923
field stddev 290939.93536264
field sum 507876275935
field sqrsum 3.4124054617155e+017
field min 1
field max 1007845
statistic Basic.rack[0].eps.queue[2] 	dropsum
field count 0
field mean nan
field stddev nan
field sum 0
field sqrsum 0
field min nan
field max nan
statistic Basic.rack[0].eps.queue[3] 	dropsum
field count 0
field mean nan
field stddev nan
field sum 0
field sqrsum 0
field min nan
field max nan
statistic Basic.rack[1].node[0].app 	throughput
field count 107164
field mean 53582.5
field stddev 30935.726460949
field sum 5742115030
field sqrsum 4.1023392408829e+014
field min 1
field max 107164
statistic Basic.rack[1].node[0].app 	"End-to-End Delay"
field count 107164
field mean 0.00011001629747137
field stddev 0.00026983360386701
field sum 11.789786502222
field sqrsum 0.0090996253112946
field min 9.4416e-006
field max 0.001254085848
statistic Basic.rack[1].node[0].app 	hops
field count 107164
field mean 5.5056548841029
field stddev 0.49997035400325
field sum 590008
field sqrsum 3275168
field min 5
field max 6
statistic Basic.rack[1].node[1].app 	throughput
field count 107840
field mean 53920.5
field stddev 31130.870851937
field sum 5814786720
field sqrsum 4.1804633818544e+014
field min 1
field max 107840
statistic Basic.rack[1].node[1].app 	"End-to-End Delay"
field count 107840
field mean 0.00011095311360464
field stddev 0.00026994308454832
field sum 11.965183771125
field sqrsum 0.0091857234826756
field min 9.4416e-006
field max 0.001254087779
statistic Basic.rack[1].node[1].app 	hops
field count 107840
field mean 5.5057214391691
field stddev 0.49996958217579
field sum 593737
field sqrsum 3295907
field min 5
field max 6
statistic Basic.rack[1].node[2].app 	throughput
field count 107202
field mean 53601.5
field stddev 30946.696116064
field sum 5746188003
field sqrsum 4.106704795944e+014
field min 1
field max 107202
statistic Basic.rack[1].node[2].app 	"End-to-End Delay"
field count 107202
field mean 0.00011114432176496
field stddev 0.00027198872239738
field sum 11.914893581847
field sqrsum 0.0092547738838588
field min 9.4416e-006
field max 0.001254086917
statistic Basic.rack[1].node[2].app 	hops
field count 107202
field mean 5.5064551034496
field stddev 0.49996066177106
field sum 590303
field sqrsum 3277273
field min 5
field max 6
statistic Basic.rack[1].node[3].app 	throughput
field count 107704
field mean 53852.5
field stddev 31091.611033632
field sum 5800129660
field sqrsum 4.1646670997698e+014
field min 1
field max 107704
statistic Basic.rack[1].node[3].app 	"End-to-End Delay"
field count 107704
field mean 0.00011063964041289
field stddev 0.0002704482214319
field sum 11.91633183103
field sqrsum 0.0091960573947775
field min 9.4416e-006
field max 0.001254087018
statistic Basic.rack[1].node[3].app 	hops
field count 107704
field mean 5.5070192379113
field stddev 0.49995304883538
field sum 593128
field sqrsum 3293288
field min 5
field max 6
statistic Basic.rack[1].node[4].app 	throughput
field count 107738
field mean 53869.5
field stddev 31101.425988208
field sum 5803792191
field sqrsum 4.1686124331337e+014
field min 1
field max 107738
statistic Basic.rack[1].node[4].app 	"End-to-End Delay"
field count 107738
field mean 0.0001102330135702
field stddev 0.00027074209424787
field sum 11.876284416027
field sqrsum 0.0092064187966893
field min 9.4416e-006
field max 0.001254083215
statistic Basic.rack[1].node[4].app 	hops
field count 107738
field mean 5.5059217731905
field stddev 0.49996725166991
field sum 593197
field sqrsum 3293027
field min 5
field max 6
statistic Basic.rack[1].node[5].app 	throughput
field count 107956
field mean 53978.5
field stddev 31164.357167551
field sum 5827302946
field sqrsum 4.1939682032657e+014
field min 1
field max 107956
statistic Basic.rack[1].node[5].app 	"End-to-End Delay"
field count 107956
field mean 0.00011261661959543
field stddev 0.0002739039574742
field sum 12.157639785044
field sqrsum 0.009468301058207
field min 9.4416e-006
field max 0.001254087335
statistic Basic.rack[1].node[5].app 	hops
field count 107956
field mean 5.5067805402201
field stddev 0.49995633772177
field sum 594490
field sqrsum 3300710
field min 5
field max 6
statistic Basic.rack[1].node[6].app 	throughput
field count 107926
field mean 53963.5
field stddev 31155.696913513
field sum 5824064701
field sqrsum 4.1904727930165e+014
field min 1
field max 107926
statistic Basic.rack[1].node[6].app 	"End-to-End Delay"
field count 107926
field mean 0.00011031494221746
field stddev 0.00027001924356022
field sum 11.905850453762
field sqrsum 0.0091822472498905
field min 9.4416e-006
field max 0.001254087401
statistic Basic.rack[1].node[6].app 	hops
field count 107926
field mean 5.5068472842503
field stddev 0.49995542870081
field sum 594332
field sqrsum 3299872
field min 5
field max 6
statistic Basic.rack[1].node[7].app 	throughput
field count 107612
field mean 53806.5
field stddev 31065.052921249
field sum 5790225078
field sqrsum 4.1540039747085e+014
field min 1
field max 107612
statistic Basic.rack[1].node[7].app 	"End-to-End Delay"
field count 107612
field mean 0.00011032853609258
field stddev 0.00027040627453804
field sum 11.872674425995
field sqrsum 0.0091783630401171
field min 9.4416e-006
field max 0.001254087725
statistic Basic.rack[1].node[7].app 	hops
field count 107612
field mean 5.5071181652604
field stddev 0.49995165209754
field sum 592632
field sqrsum 3290592
field min 5
field max 6
statistic Basic.rack[1].node[8].app 	throughput
field count 107670
field mean 53835.5
field stddev 31081.796079056
field sum 5796468285
field sqrsum 4.160724256534e+014
field min 1
field max 107670
statistic Basic.rack[1].node[8].app 	"End-to-End Delay"
field count 107670
field mean 0.00010999195770971
field stddev 0.00026929314100952
field sum 11.842834086605
field sqrsum 0.0091106427304445
field min 9.4416e-006
field max 0.001254084966
statistic Basic.rack[1].node[8].app 	hops
field count 107670
field mean 5.5060741153525
field stddev 0.49996542551572
field sum 592839
field sqrsum 3291129
field min 5
field max 6
statistic Basic.rack[1].node[9].app 	throughput
field count 107156
field mean 53578.5
field stddev 30933.417059872
field sum 5741257746
field sqrsum 4.1014205710617e+014
field min 1
field max 107156
statistic Basic.rack[1].node[9].app 	"End-to-End Delay"
field count 107156
field mean 0.00011113343269815
field stddev 0.0002710952987403
field sum 11.908614114203
field sqrsum 0.009198551254547
field min 9.4416e-006
field max 0.001254088128
statistic Basic.rack[1].node[9].app 	hops
field count 107156
field mean 5.5068591586099
field stddev 0.49995528257337
field sum 590093
field sqrsum 3276343
field min 5
field max 6
statistic Basic.rack[1].eps.queue[0] 	dropsum
field count 0
field mean nan
field stddev nan
field sum 0
field sqrsum 0
field min nan
field max nan
statistic Basic.rack[1].eps.queue[1] 	dropsum
field count 351992
field mean 175996.5
field stddev 101611.4823134
field sum 61949360028
field sqrsum 1.4537140073078e+016
field min 1
field max 351992
statistic Basic.rack[1].eps.queue[2] 	dropsum
field count 0
field mean nan
field stddev nan
field sum 0
field sqrsum 0
field min nan
field max nan
statistic Basic.rack[1].eps.queue[3] 	dropsum
field count 0
field mean nan
field stddev nan
field sum 0
field sqrsum 0
field min nan
field max nan
statistic Basic.rack[2].node[0].app 	throughput
field count 122700
field mean 61350.5
field stddev 35420.583352057
field sum 7527706350
field sqrsum 6.1576888866545e+014
field min 1
field max 122700
statistic Basic.rack[2].node[0].app 	"End-to-End Delay"
field count 122700
field mean 0.00013412088582356
field stddev 0.00026661974377279
field sum 16.456632690551
field sqrsum 0.010929370037355
field min 8.496e-007
field max 0.000835372305
statistic Basic.rack[2].node[0].app 	hops
field count 122700
field mean 4.7027220863896
field stddev 0.65366447519501
field sum 577024
field sqrsum 2766010
field min 4
field max 6
statistic Basic.rack[2].node[1].app 	throughput
field count 123016
field mean 61508.5
field stddev 35511.804694589
field sum 7566529636
field sqrsum 6.20538661978e+014
field min 1
field max 123016
statistic Basic.rack[2].node[1].app 	"End-to-End Delay"
field count 123016
field mean 0.00013502160537773
field stddev 0.00026738105953124
field sum 16.609817807147
field sqrsum 0.011037350267331
field min 8.496e-007
field max 0.000835312834
statistic Basic.rack[2].node[1].app 	hops
field count 123016
field mean 4.7021444364961
field stddev 0.65507920061267
field sum 578439
field sqrsum 2772693
field min 4
field max 6
statistic Basic.rack[2].node[2].app 	throughput
field count 122610
field mean 61305.5
field stddev 35394.602589943
field sum 7516667355
field sqrsum 6.1441489515348e+014
field min 1
field max 122610
statistic Basic.rack[2].node[2].app 	"End-to-End Delay"
field count 122610
field mean 0.00013374041415062
field stddev 0.00026643425265383
field sum 16.397912179007
field sqrsum 0.010896734517956
field min 8.496e-007
field max 0.000835363553
statistic Basic.rack[2].node[2].app 	hops
field count 122610
field mean 4.7007911263355
field stddev 0.65402115175836
field sum 576364
field sqrsum 2761812
field min 4
field max 6
statistic Basic.rack[2].node[3].app 	throughput
field count 122616
field mean 61308.5
field stddev 35396.334640751
field sum 7517403036
field sqrsum 6.145050995758e+014
field min 1
field max 122616
statistic Basic.rack[2].node[3].app 	"End-to-End Delay"
field count 122616
field mean 0.00013475240228573
field stddev 0.00026741218831015
field sum 16.522800558667
field sqrsum 0.010994597245751
field min 8.496e-007
field max 0.000835503186
statistic Basic.rack[2].node[3].app 	hops
field count 122616
field mean 4.7014908331702
field stddev 0.65536762826618
field sum 576478
field sqrsum 2762970
field min 4
field max 6
statistic Basic.rack[2].node[4].app 	throughput
field count 122533
field mean 61267
field stddev 35372.374604579
field sum 7507229311
field sqrsum 6.1325805518628e+014
field min 1
field max 122533
statistic Basic.rack[2].node[4].app 	"End-to-End Delay"
field count 122533
field mean 0.00013457030181214
field stddev 0.00026690485991466
field sum 16.489302791947
field sqrsum 0.010947930096063
field min 8.496e-007
field max 0.000835296506
statistic Basic.rack[2].node[4].app 	hops
field count 122533
field mean 4.7012151828487
field stddev 0.65450701757869
field sum 576054
field sqrsum 2760644
field min 4
field max 6
statistic Basic.rack[2].node[5].app 	throughput
field count 122730
field mean 61365.5
field stddev 35429.243606095
field sum 7531387815
field sqrsum 6.162206614859e+014
field min 1
field max 122730
statistic Basic.rack[2].node[5].app 	"End-to-End Delay"
field count 122730
field mean 0.00013396181880597
field stddev 0.00026626897873529
field sum 16.441134022057
field sqrsum 0.010903868333537
field min 8.496e-007
field max 0.000835492678
statistic Basic.rack[2].node[5].app 	hops
field count 122730
field mean 4.7015155218773
field stddev 0.65337340478186
field sum 577017
field sqrsum 2765247
field min 4
field max 6
statistic Basic.rack[2].node[6].app 	throughput
field count 123373
field mean 61687
field stddev 35614.861717641
field sum 7610510251
field sqrsum 6.259568576345e+014
field min 1
field max 123373
statistic Basic.rack[2].node[6].app 	"End-to-End Delay"
field count 123373
field mean 0.00013190562007871
field stddev 0.00026375538216647
field sum 16.273592065971
field sqrsum 0.010729186039252
field min 8.496e-007
field max 0.000835294151
statistic Basic.rack[2].node[6].app 	hops
field count 123373
field mean 4.699366960356
field stddev 0.64951879114412
field sum 579775
field sqrsum 2776623
field min 4
field max 6
statistic Basic.rack[2].node[7].app 	throughput
field count 122669
field mean 61335
field stddev 35411.634422884
field sum 7523903115
field sqrsum 6.15302288777e+014
field min 1
field max 122669
statistic Basic.rack[2].node[7].app 	"End-to-End Delay"
field count 122669
field mean 0.00013269950273025
field stddev 0.00026516546696882
field sum 16.278115300417
field sqrsum 0.010785219140447
field min 8.496e-007
field max 0.000835324862
statistic Basic.rack[2].node[7].app 	hops
field count 122669
field mean 4.6994432171127
field stddev 0.6520444754836
field sum 576476
field sqrsum 2761270
field min 4
field max 6
statistic Basic.rack[2].node[8].app 	throughput
field count 122660
field mean 61330.5
field stddev 35409.036346673
field sum 7522799130
field sqrsum 6.1516686845691e+014
field min 1
field max 122660
statistic Basic.rack[2].node[8].app 	"End-to-End Delay"
field count 122660
field mean 0.00013426921596073
field stddev 0.00026678425990635
field sum 16.469462029743
field sqrsum 0.010941453958189
field min 8.496e-007
field max 0.000835432527
statistic Basic.rack[2].node[8].app 	hops
field count 122660
field mean 4.7013614870373
field stddev 0.65438854436677
field sum 576669
field sqrsum 2763655
field min 4
field max 6
statistic Basic.rack[2].node[9].app 	throughput
field count 122001
field mean 61001
field stddev 35218.799432973
field sum 7442183001
field sqrsum 6.05304992931e+014
field min 1
field max 122001
statistic Basic.rack[2].node[9].app 	"End-to-End Delay"
field count 122001
field mean 0.00013655781279735
field stddev 0.00026882550881528
field sum 16.66018971909
field sqrsum 0.011091671879983
field min 8.496e-007
field max 0.000835324315
statistic Basic.rack[2].node[9].app 	hops
field count 122001
field mean 4.708264686355
field stddev 0.6555848141148
field sum 574413
field sqrsum 2756923
field min 4
field max 6
statistic Basic.rack[2].eps.queue[0] 	dropsum
field count 0
field mean nan
field stddev nan
field sum 0
field sqrsum 0
field min nan
field max nan
statistic Basic.rack[2].eps.queue[1] 	dropsum
field count 3995106
field mean 1997553.5
field stddev 1153287.9066118
field sum 7980437973171
field sqrsum 2.1255133079675e+019
field min 1
field max 3995106
statistic Basic.rack[2].eps.queue[2] 	dropsum
field count 0
field mean nan
field stddev nan
field sum 0
field sqrsum 0
field min nan
field max nan
statistic Basic.rack[2].eps.queue[3] 	dropsum
field count 0
field mean nan
field stddev nan
field sum 0
field sqrsum 0
field min nan
field max nan
statistic Basic.rack[3].node[0].app 	throughput
field count 48768
field mean 24384.5
field stddev 14078.253300747
field sum 1189183296
field sqrsum 38663123713984
field min 1
field max 48768
statistic Basic.rack[3].node[0].app 	"End-to-End Delay"
field count 48768
field mean 0.00086095807375812
field stddev 0.00030959289932703
field sum 41.987203341036
field sqrsum 0.040823429584508
field min 9.4416e-006
field max 0.001252173962
statistic Basic.rack[3].node[0].app 	hops
field count 48768
field mean 4.335875984252
field stddev 0.68181430023698
field sum 211452
field sqrsum 939500
field min 3
field max 5
statistic Basic.rack[3].node[1].app 	throughput
field count 48886
field mean 24443.5
field stddev 14112.316966631
field sum 1194944941
field sqrsum 38944450572131
field min 1
field max 48886
statistic Basic.rack[3].node[1].app 	"End-to-End Delay"
field count 48886
field mean 0.00086051343015262
field stddev 0.00031020410772762
field sum 42.067059546441
field sqrsum 0.040903306483174
field min 0.000158630153
field max 0.00125217501
statistic Basic.rack[3].node[1].app 	hops
field count 48886
field mean 4.3354334574316
field stddev 0.68358748642089
field sum 211942
field sqrsum 941704
field min 3
field max 5
statistic Basic.rack[3].node[2].app 	throughput
field count 48906
field mean 24453.5
field stddev 14118.090469323
field sum 1195922871
field sqrsum 38992267927041
field min 1
field max 48906
statistic Basic.rack[3].node[2].app 	"End-to-End Delay"
field count 48906
field mean 0.00085731093602227
field stddev 0.00030899786396784
field sum 41.927648637105
field sqrsum 0.040614465445593
field min 0.000106441328
field max 0.001252174415
statistic Basic.rack[3].node[2].app 	hops
field count 48906
field mean 4.3265039054513
field stddev 0.68399832527703
field sum 211592
field sqrsum 938334
field min 3
field max 5
statistic Basic.rack[3].node[3].app 	throughput
field count 48647
field mean 24324
field stddev 14043.323609459
field sum 1183289628
field sqrsum 38376054785420
field min 1
field max 48647
statistic Basic.rack[3].node[3].app 	"End-to-End Delay"
field count 48647
field mean 0.00085907656297168
field stddev 0.00030927598940039
field sum 41.791497558883
field sqrsum 0.040555165647967
field min 0.000238750121
field max 0.001252174446
statistic Basic.rack[3].node[3].app 	hops
field count 48647
field mean 4.3312640039468
field stddev 0.68272691006076
field sum 210703
field sqrsum 935285
field min 3
field max 5
statistic Basic.rack[3].node[4].app 	throughput
field count 49157
field mean 24579
field stddev 14190.54792811
field sum 1208229903
field sqrsum 39595707637815
field min 1
field max 49157
statistic Basic.rack[3].node[4].app 	"End-to-End Delay"
field count 49157
field mean 0.00085777226549796
field stddev 0.0003089677755676
field sum 42.165511255083
field sqrsum 0.040860891275242
field min 0.000315248368
field max 0.001252173924
statistic Basic.rack[3].node[4].app 	hops
field count 49157
field mean 4.3249181194947
field stddev 0.68460168366912
field sum 212600
field sqrsum 942516
field min 3
field max 5
statistic Basic.rack[3].node[5].app 	throughput
field count 48917
field mean 24459
field stddev 14121.265895804
field sum 1196460903
field sqrsum 39018584148335
field min 1
field max 48917
statistic Basic.rack[3].node[5].app 	"End-to-End Delay"
field count 48917
field mean 0.00086407912359964
field stddev 0.00030899286208557
field sum 42.268158489124
field sqrsum 0.041193366162164
field min 5.0233242e-005
field max 0.001252174225
statistic Basic.rack[3].node[5].app 	hops
field count 48917
field mean 4.3347507001656
field stddev 0.6818418870362
field sum 212043
field sqrsum 941895
field min 3
field max 5
statistic Basic.rack[3].node[6].app 	throughput
field count 48750
field mean 24375.5
field stddev 14073.057148324
field sum 1188305625
field sqrsum 38620328914375
field min 1
field max 48750
statistic Basic.rack[3].node[6].app 	"End-to-End Delay"
field count 48750
field mean 0.00085812698803014
field stddev 0.00030837640934838
field sum 41.833690666469
field sqrsum 0.040534454353619
field min 7.8883178e-005
field max 0.001252174909
statistic Basic.rack[3].node[6].app 	hops
field count 48750
field mean 4.325558974359
field stddev 0.68274738598216
field sum 210871
field sqrsum 934859
field min 3
field max 5
statistic Basic.rack[3].node[7].app 	throughput
field count 48749
field mean 24375
field stddev 14072.76847319
field sum 1188256875
field sqrsum 38617952351875
field min 1
field max 48749
statistic Basic.rack[3].node[7].app 	"End-to-End Delay"
field count 48749
field mean 0.00086091254253625
field stddev 0.00030929516187277
field sum 41.9686255361
field sqrsum 0.040794720276489
field min 2.4306689e-005
field max 0.001252175163
statistic Basic.rack[3].node[7].app 	hops
field count 48749
field mean 4.3296272744056
field stddev 0.68386765367564
field sum 211065
field sqrsum 936631
field min 3
field max 5
statistic Basic.rack[3].node[8].app 	throughput
field count 48810
field mean 24405.5
field stddev 14090.377656401
field sum 1191232455
field sqrsum 38763101163185
field min 1
field max 48810
statistic Basic.rack[3].node[8].app 	"End-to-End Delay"
field count 48810
field mean 0.00085717056865212
field stddev 0.00030875217005018
field sum 41.83849545591
field sqrsum 0.040515586535136
field min 0.000220980878
field max 0.001252174655
statistic Basic.rack[3].node[8].app 	hops
field count 48810
field mean 4.3259782831387
field stddev 0.68356218344816
field sum 211151
field sqrsum 936241
field min 3
field max 5
statistic Basic.rack[3].node[9].app 	throughput
field count 48989
field mean 24495
field stddev 14142.050505496
field sum 1199985555
field sqrsum 39191128231115
field min 1
field max 48989
statistic Basic.rack[3].node[9].app 	"End-to-End Delay"
field count 48989
field mean 0.0008592245175648
field stddev 0.00031028102417807
field sum 42.092549890982
field sqrsum 0.040883236965668
field min 0.000246013512
field max 0.001252173451
statistic Basic.rack[3].node[9].app 	hops
field count 48989
field mean 4.3308089571128
field stddev 0.68587133729659
field sum 212162
field sqrsum 941878
field min 3
field max 5
statistic Basic.rack[3].eps.queue[0] 	dropsum
field count 0
field mean nan
field stddev nan
field sum 0
field sqrsum 0
field min nan
field max nan
statistic Basic.rack[3].eps.queue[1] 	dropsum
field count 0
field mean nan
field stddev nan
field sum 0
field sqrsum 0
field min nan
field max nan
statistic Basic.rack[3].eps.queue[2] 	dropsum
field count 0
field mean nan
field stddev nan
field sum 0
field sqrsum 0
field min nan
field max nan
statistic Basic.rack[3].eps.queue[3] 	dropsum
field count 0
field mean nan
field stddev nan
field sum 0
field sqrsum 0
field min nan
field max nan
statistic Basic.rack[4].node[0].app 	throughput
field count 90735
field mean 45368
field stddev 26193.08267463
field sum 4116465480
field sqrsum 2.4900636904036e+014
field min 1
field max 90735
statistic Basic.rack[4].node[0].app 	"End-to-End Delay"
field count 90735
field mean 0.00018781694728169
field stddev 0.00020713434154806
field sum 17.041570711604
field sqrsum 0.0070936049807271
field min 8.496e-007
field max 0.000427874107
statistic Basic.rack[4].node[0].app 	hops
field count 90735
field mean 4.450917507026
field stddev 0.61970672616189
field sum 403854
field sqrsum 1832366
field min 4
field max 6
statistic Basic.rack[4].node[1].app 	throughput
field count 91106
field mean 45553.5
field stddev 26300.181149566
field sum 4150197171
field sqrsum 2.5207329237314e+014
field min 1
field max 91106
statistic Basic.rack[4].node[1].app 	"End-to-End Delay"
field count 91106
field mean 0.00018747784176123
field stddev 0.00020708963839268
field sum 17.080356251499
field sqrsum 0.0071093281369631
field min 8.496e-007
field max 0.000427787614
statistic Basic.rack[4].node[1].app 	hops
field count 91106
field mean 4.4483019779158
field stddev 0.61634437066458
field sum 405267
field sqrsum 1837359
field min 4
field max 6
statistic Basic.rack[4].node[2].app 	throughput
field count 89993
field mean 44997
field stddev 25978.885724757
field sum 4049415021
field sqrsum 2.4294735379491e+014
field min 1
field max 89993
statistic Basic.rack[4].node[2].app 	"End-to-End Delay"
field count 89993
field mean 0.00018872824929721
field stddev 0.00020718283038562
field sum 16.984221339004
field sqrsum 0.0070682842297786
field min 8.496e-007
field max 0.000427913714
statistic Basic.rack[4].node[2].app 	hops
field count 89993
field mean 4.4510017445801
field stddev 0.61564080708688
field sum 400559
field sqrsum 1816997
field min 4
field max 6
statistic Basic.rack[4].node[3].app 	throughput
field count 90539
field mean 45270
field stddev 26136.502348249
field sum 4098700530
field sqrsum 2.4739619775729e+014
field min 1
field max 90539
statistic Basic.rack[4].node[3].app 	"End-to-End Delay"
field count 90539
field mean 0.00018806423021061
field stddev 0.00020717008977706
field sum 17.027147339039
field sqrsum 0.0070880381678411
field min 8.496e-007
field max 0.00042784411
statistic Basic.rack[4].node[3].app 	hops
field count 90539
field mean 4.450954837142
field stddev 0.61886021959475
field sum 402985
field sqrsum 1828343
field min 4
field max 6
statistic Basic.rack[4].node[4].app 	throughput
field count 91181
field mean 45591
field stddev 26321.831784661
field sum 4157032971
field sqrsum 2.5269633456349e+014
field min 1
field max 91181
statistic Basic.rack[4].node[4].app 	"End-to-End Delay"
field count 91181
field mean 0.00018781493988504
field stddev 0.00020712378312121
field sum 17.125154033657
field sqrsum 0.0071280056220637
field min 8.496e-007
field max 0.00042779353
statistic Basic.rack[4].node[4].app 	hops
field count 91181
field mean 4.4507737357564
field stddev 0.61786216194383
field sum 405826
field sqrsum 1841048
field min 4
field max 6
statistic Basic.rack[4].node[5].app 	throughput
field count 90622
field mean 45311.5
field stddev 26160.46238442
field sum 4106218753
field sqrsum 2.480772059625e+014
field min 1
field max 90622
statistic Basic.rack[4].node[5].app 	"End-to-End Delay"
field count 90622
field mean 0.00018730834315125
field stddev 0.00020704624797114
field sum 16.974256673053
field sqrsum 0.0070641744059612
field min 8.496e-007
field max 0.000427814132
statistic Basic.rack[4].node[5].app 	hops
field count 90622
field mean 4.4485224338461
field stddev 0.6169368567543
field sum 403134
field sqrsum 1827842
field min 4
field max 6
statistic Basic.rack[4].node[6].app 	throughput
field count 90204
field mean 45102.5
field stddev 26039.796178158
field sum 4068425910
field sqrsum 2.4466021666573e+014
field min 1
field max 90204
statistic Basic.rack[4].node[6].app 	"End-to-End Delay"
field count 90204
field mean 0.00018718768823082
field stddev 0.00020708114111969
field sum 16.885078229173
field sqrsum 0.0070288178375828
field min 8.496e-007
field max 0.000427898509
statistic Basic.rack[4].node[6].app 	hops
field count 90204
field mean 4.4495255199326
field stddev 0.61870368477248
field sum 401365
field sqrsum 1820413
field min 4
field max 6
statistic Basic.rack[4].node[7].app 	throughput
field count 91081
field mean 45541
field stddev 26292.964271201
field sum 4147919821
field sqrsum 2.5186583945094e+014
field min 1
field max 91081
statistic Basic.rack[4].node[7].app 	"End-to-End Delay"
field count 91081
field mean 0.00018773281798945
field stddev 0.00020711817965223
field sum 17.098892795297
field sqrsum 0.0071171677353513
field min 8.496e-007
field max 0.000427945602
statistic Basic.rack[4].node[7].app 	hops
field count 91081
field mean 4.4493912012385
field stddev 0.61754974286737
field sum 405255
field sqrsum 1837873
field min 4
field max 6
statistic Basic.rack[4].node[8].app 	throughput
field count 90218
field mean 45109.5
field stddev 26043.837630042
field sum 4069688871
field sqrsum 2.4477415027221e+014
field min 1
field max 90218
statistic Basic.rack[4].node[8].app 	"End-to-End Delay"
field count 90218
field mean 0.00018820538049207
field stddev 0.0002071735962018
field sum 16.979513017234
field sqrsum 0.0070678304497402
field min 8.496e-007
field max 0.000427792423
statistic Basic.rack[4].node[8].app 	hops
field count 90218
field mean 4.4514620142322
field stddev 0.6186087553393
field sum 401602
field sqrsum 1822240
field min 4
field max 6
statistic Basic.rack[4].node[9].app 	throughput
field count 90328
field mean 45164.5
field stddev 26075.591894848
field sum 4079618956
field sqrsum 2.4567057391136e+014
field min 1
field max 90328
statistic Basic.rack[4].node[9].app 	"End-to-End Delay"
field count 90328
field mean 0.00018819426300052
field stddev 0.00020717386145984
field sum 16.999211388311
field sqrsum 0.0070760800272106
field min 8.496e-007
field max 0.000427874739
statistic Basic.rack[4].node[9].app 	hops
field count 90328
field mean 4.4509011602161
field stddev 0.61841365385154
field sum 402041
field sqrsum 1823989
field min 4
field max 6
statistic Basic.rack[4].eps.queue[0] 	dropsum
field count 0
field mean nan
field stddev nan
field sum 0
field sqrsum 0
field min nan
field max nan
statistic Basic.rack[4].eps.queue[1] 	dropsum
field count 685932
field mean 342966.5
field stddev 198011.65675955
field sum 235251697278
field sqrsum 1.0757785656186e+017
field min 1
field max 685932
statistic Basic.rack[4].eps.queue[2] 	dropsum
field count 0
field mean nan
field stddev nan
field sum 0
field sqrsum 0
field min nan
field max nan
statistic Basic.rack[4].eps.queue[3] 	dropsum
field count 0
field mean nan
field stddev nan
field sum 0
field sqrsum 0
field min nan
field max nan
statistic Basic.rack[5].node[0].app 	throughput
field count 59348
field mean 29674.5
field stddev 17132.436224892
field sum 1761122226
field sqrsum 69679974953174
field min 1
field max 59348
statistic Basic.rack[5].node[0].app 	"End-to-End Delay"
field count 59348
field mean 0.00060742222816647
field stddev 0.00020855544347389
field sum 36.049294397224
field sqrsum 0.024478462628176
field min 4.4984147e-005
field max 0.000844110968
statistic Basic.rack[5].node[0].app 	hops
field count 59348
field mean 5.4721641841343
field stddev 0.64665909262512
field sum 324762
field sqrsum 1801968
field min 5
field max 7
statistic Basic.rack[5].node[1].app 	throughput
field count 59578
field mean 29789.5
field stddev 17198.831505851
field sum 1774798831
field sqrsum 70493234768489
field min 1
field max 59578
statistic Basic.rack[5].node[1].app 	"End-to-End Delay"
field count 59578
field mean 0.00061041368474855
field stddev 0.00020869512677561
field sum 36.367226509949
field sqrsum 0.024793848897954
field min 0.000185799786
field max 0.000844044363
statistic Basic.rack[5].node[1].app 	hops
field count 59578
field mean 5.4788176843801
field stddev 0.64886906819103
field sum 326417
field sqrsum 1813463
field min 5
field max 7
statistic Basic.rack[5].node[2].app 	throughput
field count 59561
field mean 29781
field stddev 17193.924028563
field sum 1773786141
field sqrsum 70432908824781
field min 1
field max 59561
statistic Basic.rack[5].node[2].app 	"End-to-End Delay"
field count 59561
field mean 0.00060715170138811
field stddev 0.00020839758371571
field sum 36.162562486377
field sqrsum 0.024542825510795
field min 5.0796377e-005
field max 0.00084402221
statistic Basic.rack[5].node[2].app 	hops
field count 59561
field mean 5.4703077517167
field stddev 0.64329651845788
field sum 325817
field sqrsum 1806967
field min 5
field max 7
statistic Basic.rack[5].node[3].app 	throughput
field count 59424
field mean 29712.5
field stddev 17154.375535122
field sum 1765635600
field sqrsum 69948008474800
field min 1
field max 59424
statistic Basic.rack[5].node[3].app 	"End-to-End Delay"
field count 59424
field mean 0.00060879312947886
field stddev 0.00020854591089052
field sum 36.176922926152
field sqrsum 0.024608651404037
field min 5.6515937e-005
field max 0.00084401664
statistic Basic.rack[5].node[3].app 	hops
field count 59424
field mean 5.4741518578352
field stddev 0.64688677676574
field sum 325296
field sqrsum 1805586
field min 5
field max 7
statistic Basic.rack[5].node[4].app 	throughput
field count 59594
field mean 29797.5
field stddev 17203.450308005
field sum 1775752215
field sqrsum 70550043584545
field min 1
field max 59594
statistic Basic.rack[5].node[4].app 	"End-to-End Delay"
field count 59594
field mean 0.00060911745841668
field stddev 0.00020851314108858
field sum 36.299745816884
field sqrsum 0.024701777277437
field min 3.3014083e-005
field max 0.00084404491
statistic Basic.rack[5].node[4].app 	hops
field count 59594
field mean 5.4732523408397
field stddev 0.64483980321505
field sum 326173
field sqrsum 1810007
field min 5
field max 7
statistic Basic.rack[5].node[5].app 	throughput
field count 59500
field mean 29750.5
field stddev 17176.314845352
field sum 1770154750
field sqrsum 70216728468250
field min 1
field max 59500
statistic Basic.rack[5].node[5].app 	"End-to-End Delay"
field count 59500
field mean 0.00061088856597044
field stddev 0.00020868583732933
field sum 36.347869675241
field sqrsum 0.024795666264969
field min 0.000166697644
field max 0.000843995182
statistic Basic.rack[5].node[5].app 	hops
field count 59500
field mean 5.4829075630252
field stddev 0.65115335286396
field sum 326233
field sqrsum 1813933
field min 5
field max 7
statistic Basic.rack[5].node[6].app 	throughput
field count 60200
field mean 30100.5
field stddev 17378.387439576
field sum 1812050100
field sqrsum 72724214696700
field min 1
field max 60200
statistic Basic.rack[5].node[6].app 	"End-to-End Delay"
field count 60200
field mean 0.00061105637176013
field stddev 0.00020868281605648
field sum 36.78559357996
field sqrsum 0.025099648564075
field min 0.000109627396
field max 0.000844025406
statistic Basic.rack[5].node[6].app 	hops
field count 60200
field mean 5.4825249169435
field stddev 0.650351798104
field sum 330048
field sqrsum 1834958
field min 5
field max 7
statistic Basic.rack[5].node[7].app 	throughput
field count 59490
field mean 29745.5
field stddev 17173.428094006
field sum 1769559795
field sqrsum 70181331322965
field min 1
field max 59490
statistic Basic.rack[5].node[7].app 	"End-to-End Delay"
field count 59490
field mean 0.00060842774609845
field stddev 0.00020857616331241
field sum 36.195366615397
field sqrsum 0.024610275731015
field min 0.000158249574
field max 0.000844041634
statistic Basic.rack[5].node[7].app 	hops
field count 59490
field mean 5.4796436375861
field stddev 0.65100452851791
field sum 325984
field sqrsum 1811488
field min 5
field max 7
statistic Basic.rack[5].node[8].app 	throughput
field count 59306
field mean 29653.5
field stddev 17120.311869239
field sum 1758630471
field sqrsum 69532145352241
field min 1
field max 59306
statistic Basic.rack[5].node[8].app 	"End-to-End Delay"
field count 59306
field mean 0.00061029117361624
field stddev 0.00020856898557783
field sum 36.193928342485
field sqrsum 0.024668663100503
field min 3.1376555e-005
field max 0.000844043638
statistic Basic.rack[5].node[8].app 	hops
field count 59306
field mean 5.4800694702054
field stddev 0.64712163682353
field sum 325001
field sqrsum 1805863
field min 5
field max 7
statistic Basic.rack[5].node[9].app 	throughput
field count 59592
field mean 29796.5
field stddev 17202.872957736
field sum 1775633028
field sqrsum 70542940814060
field min 1
field max 59592
statistic Basic.rack[5].node[9].app 	"End-to-End Delay"
field count 59592
field mean 0.00060926845160797
field stddev 0.00020851904900563
field sum 36.307525568222
field sqrsum 0.024712058113296
field min 0.000138054511
field max 0.000844027636
statistic Basic.rack[5].node[9].app 	hops
field count 59592
field mean 5.47464424755
field stddev 0.64427555795678
field sum 326245
field sqrsum 1810811
field min 5
field max 7
statistic Basic.rack[5].eps.queue[0] 	dropsum
field count 0
field mean nan
field stddev nan
field sum 0
field sqrsum 0
field min nan
field max nan
statistic Basic.rack[5].eps.queue[1] 	dropsum
field count 1409043
field mean 704522
field stddev 406755.82201299
field sum 992701792446
field sqrsum 9.3250667205691e+017
field min 1
field max 1409043
statistic Basic.rack[5].eps.queue[2] 	dropsum
field count 0
field mean nan
field stddev nan
field sum 0
field sqrsum 0
field min nan
field max nan
statistic Basic.rack[5].eps.queue[3] 	dropsum
field count 0
field mean nan
field stddev nan
field sum 0
field sqrsum 0
field min nan
field max nan
statistic Basic.rack[6].node[0].app 	throughput
field count 48961
field mean 24481
field stddev 14133.967601727
field sum 1198614241
field sqrsum 39123967440481
field min 1
field max 48961
statistic Basic.rack[6].node[0].app 	"End-to-End Delay"
field count 48961
field mean 0.00085988512238847
field stddev 0.00030918719282662
field sum 42.100835477262
field sqrsum 0.040882297488406
field min 3.6719406e-005
field max 0.001252625949
statistic Basic.rack[6].node[0].app 	hops
field count 48961
field mean 6.3297931006311
field stddev 0.68315742002956
field sum 309913
field sqrsum 1984535
field min 5
field max 7
statistic Basic.rack[6].node[1].app 	throughput
field count 49544
field mean 24772.5
field stddev 14302.265205204
field sum 1227328740
field sqrsum 40538259172620
field min 1
field max 49544
statistic Basic.rack[6].node[1].app 	"End-to-End Delay"
field count 49544
field mean 0.00086052086753345
field stddev 0.00030941330890814
field sum 42.633645861077
field sqrsum 0.041430220084714
field min 0.000274909699
field max 0.001252730387
statistic Basic.rack[6].node[1].app 	hops
field count 49544
field mean 6.3317858872921
field stddev 0.68336693190211
field sum 313702
field sqrsum 2009430
field min 5
field max 7
statistic Basic.rack[6].node[2].app 	throughput
field count 49300
field mean 24650.5
field stddev 14231.82847236
field sum 1215269650
field sqrsum 39942267586550
field min 1
field max 49300
statistic Basic.rack[6].node[2].app 	"End-to-End Delay"
field count 49300
field mean 0.00085879565496176
field stddev 0.00030893805622354
field sum 42.338625789615
field sqrsum 0.041065458645801
field min 0.000417787035
field max 0.001252783925
statistic Basic.rack[6].node[2].app 	hops
field count 49300
field mean 6.3276470588235
field stddev 0.68337226180486
field sum 311953
field sqrsum 1996951
field min 5
field max 7
statistic Basic.rack[6].node[3].app 	throughput
field count 48913
field mean 24457
field stddev 14120.111195266
field sum 1196265241
field sqrsum 39009013243769
field min 1
field max 48913
statistic Basic.rack[6].node[3].app 	"End-to-End Delay"
field count 48913
field mean 0.00085772101523745
field stddev 0.00030811810745793
field sum 41.953708018309
field sqrsum 0.040628124237872
field min 2.9593289e-005
field max 0.001252776813
statistic Basic.rack[6].node[3].app 	hops
field count 48913
field mean 6.3195265062458
field stddev 0.68467738789032
field sum 309107
field sqrsum 1976339
field min 5
field max 7
statistic Basic.rack[6].node[4].app 	throughput
field count 49164
field mean 24582.5
field stddev 14192.568654053
field sum 1208574030
field sqrsum 39612625265290
field min 1
field max 49164
statistic Basic.rack[6].node[4].app 	"End-to-End Delay"
field count 49164
field mean 0.00086279100733804
field stddev 0.0003109526567295
field sum 42.418257084767
field sqrsum 0.04135173766474
field min 0.000332974621
field max 0.001252738637
statistic Basic.rack[6].node[4].app 	hops
field count 49164
field mean 6.3390488975673
field stddev 0.68453788095187
field sum 311653
field sqrsum 1998621
field min 5
field max 7
statistic Basic.rack[6].node[5].app 	throughput
field count 48941
field mean 24471
field stddev 14128.194099035
field sum 1197635211
field sqrsum 39076042452771
field min 1
field max 48941
statistic Basic.rack[6].node[5].app 	"End-to-End Delay"
field count 48941
field mean 0.00085911221084479
field stddev 0.00030750164697299
field sum 42.045810710955
field sqrsum 0.040749701842541
field min 0.000291966796
field max 0.00125271428
statistic Basic.rack[6].node[5].app 	hops
field count 48941
field mean 6.3270264195664
field stddev 0.6798961156921
field sum 309651
field sqrsum 1981793
field min 5
field max 7
statistic Basic.rack[6].node[6].app 	throughput
field count 48824
field mean 24412.5
field stddev 14094.419108285
field sum 1191915900
field sqrsum 38796465239700
field min 1
field max 48824
statistic Basic.rack[6].node[6].app 	"End-to-End Delay"
field count 48824
field mean 0.00085953340233742
field stddev 0.00030895512817758
field sum 41.965858835722
field sqrsum 0.040731372488207
field min 0.000137311997
field max 0.001252669677
statistic Basic.rack[6].node[6].app 	hops
field count 48824
field mean 6.3282606914632
field stddev 0.68330841389797
field sum 308971
field sqrsum 1978045
field min 5
field max 7
statistic Basic.rack[6].node[7].app 	throughput
field count 48828
field mean 24414.5
field stddev 14095.573808824
field sum 1192111206
field sqrsum 38806001348114
field min 1
field max 48828
statistic Basic.rack[6].node[7].app 	"End-to-End Delay"
field count 48828
field mean 0.00086112344641522
field stddev 0.00030817242054995
field sum 42.046935641562
field sqrsum 0.040844714077798
field min 0.000292810781
field max 0.001252624726
statistic Basic.rack[6].node[7].app 	hops
field count 48828
field mean 6.3255713934628
field stddev 0.68309194835758
field sum 308865
field sqrsum 1976531
field min 5
field max 7
statistic Basic.rack[6].node[8].app 	throughput
field count 49246
field mean 24623.5
field stddev 14216.240015091
field sum 1212608881
field sqrsum 39811162172111
field min 1
field max 49246
statistic Basic.rack[6].node[8].app 	"End-to-End Delay"
field count 49246
field mean 0.00086266117251118
field stddev 0.00030904847594906
field sum 42.482612101486
field sqrsum 0.04135153721596
field min 0.000119178757
field max 0.001252665088
statistic Basic.rack[6].node[8].app 	hops
field count 49246
field mean 6.3293059334768
field stddev 0.68398629818388
field sum 311693
field sqrsum 1995839
field min 5
field max 7
statistic Basic.rack[6].node[9].app 	throughput
field count 48622
field mean 24311.5
field stddev 14036.106731094
field sum 1182073753
field sqrsum 38316920703495
field min 1
field max 48622
statistic Basic.rack[6].node[9].app 	"End-to-End Delay"
field count 48622
field mean 0.00086043196703805
field stddev 0.00030919186449288
field sum 41.835923101324
field sqrsum 0.040645114199448
field min 8.9360796e-005
field max 0.001252668367
statistic Basic.rack[6].node[9].app 	hops
field count 48622
field mean 6.3329768417589
field stddev 0.68215545689874
field sum 307922
field sqrsum 1972688
field min 5
field max 7
statistic Basic.rack[6].eps.queue[0] 	dropsum
field count 0
field mean nan
field stddev nan
field sum 0
field sqrsum 0
field min nan
field max nan
statistic Basic.rack[6].eps.queue[1] 	dropsum
field count 3002262
field mean 1501131.5
field stddev 866678.53127903
field sum 4506790059453
field sqrsum 9.0203778605924e+018
field min 1
field max 3002262
statistic Basic.rack[6].eps.queue[2] 	dropsum
field count 0
field mean nan
field stddev nan
field sum 0
field sqrsum 0
field min nan
field max nan
statistic Basic.rack[6].eps.queue[3] 	dropsum
field count 0
field mean nan
field stddev nan
field sum 0
field sqrsum 0
field min nan
field max nan
statistic Basic.rack[7].node[0].app 	throughput
field count 35944
field mean 17972.5
field stddev 10376.283374439
field sum 646003540
field sqrsum 15480182829020
field min 1
field max 35944
statistic Basic.rack[7].node[0].app 	"End-to-End Delay"
field count 35944
field mean 0.00088174330230851
field stddev 0.00022951560784675
field sum 31.693381258177
field sqrsum 0.029838810952125
field min 0.000300673144
field max 0.001247473187
statistic Basic.rack[7].node[0].app 	hops
field count 35944
field mean 4.2272980191409
field stddev 0.52806959929581
field sum 151946
field sqrsum 652344
field min 3
field max 5
statistic Basic.rack[7].node[1].app 	throughput
field count 35861
field mean 17931
field stddev 10352.323338266
field sum 643023591
field sqrsum 15373193672431
field min 1
field max 35861
statistic Basic.rack[7].node[1].app 	"End-to-End Delay"
field count 35861
field mean 0.00088295408809197
field stddev 0.000229842665008
field sum 31.663616553066
field sqrsum 0.029851919231901
field min 0.000418285135
field max 0.001247476703
statistic Basic.rack[7].node[1].app 	hops
field count 35861
field mean 4.2298597362037
field stddev 0.52845063378717
field sum 151687
field sqrsum 651629
field min 3
field max 5
statistic Basic.rack[7].node[2].app 	throughput
field count 35236
field mean 17618.5
field stddev 10171.901379126
field sum 620805466
field sqrsum 14583341201806
field min 1
field max 35236
statistic Basic.rack[7].node[2].app 	"End-to-End Delay"
field count 35236
field mean 0.00088119928387626
field stddev 0.00022931523566256
field sum 31.049937966664
field sqrsum 0.029214032393538
field min 0.000159709858
field max 0.00124747757
statistic Basic.rack[7].node[2].app 	hops
field count 35236
field mean 4.2277216483142
field stddev 0.52702639244345
field sum 148968
field sqrsum 639582
field min 3
field max 5
statistic Basic.rack[7].node[3].app 	throughput
field count 35522
field mean 17761.5
field stddev 10254.462467628
field sum 630924003
field sqrsum 14941331931045
field min 1
field max 35522
statistic Basic.rack[7].node[3].app 	"End-to-End Delay"
field count 35522
field mean 0.00088273860043106
field stddev 0.00023042070609099
field sum 31.356640564512
field sqrsum 0.029565658387614
field min 7.4400441e-005
field max 0.001247477643
statistic Basic.rack[7].node[3].app 	hops
field count 35522
field mean 4.2302235234503
field stddev 0.52945215676901
field sum 150266
field sqrsum 645616
field min 3
field max 5
statistic Basic.rack[7].node[4].app 	throughput
field count 35347
field mean 17674
field stddev 10203.944319069
field sum 624722878
field sqrsum 14721594620070
field min 1
field max 35347
statistic Basic.rack[7].node[4].app 	"End-to-End Delay"
field count 35347
field mean 0.00088395493045831
field stddev 0.00022862172109376
field sum 31.24515492691
field sqrsum 0.02946676963844
field min 9.9870673e-005
field max 0.001247475835
statistic Basic.rack[7].node[4].app 	hops
field count 35347
field mean 4.2305146122726
field stddev 0.52547200907429
field sum 149536
field sqrsum 642374
field min 3
field max 5
statistic Basic.rack[7].node[5].app 	throughput
field count 35114
field mean 17557.5
field stddev 10136.683012702
field sum 616514055
field sqrsum 14432388522865
field min 1
field max 35114
statistic Basic.rack[7].node[5].app 	"End-to-End Delay"
field count 35114
field mean 0.00088524681196298
field stddev 0.00022904158384593
field sum 31.084556555268
field sqrsum 0.029359534226733
field min 0.000418285402
field max 0.001247476431
statistic Basic.rack[7].node[5].app 	hops
field count 35114
field mean 4.2323005069203
field stddev 0.52700611705567
field sum 148613
field sqrsum 638727
field min 3
field max 5
statistic Basic.rack[7].node[6].app 	throughput
field count 35535
field mean 17768
field stddev 10258.215244379
field sum 631385880
field sqrsum 14957741959160
field min 1
field max 35535
statistic Basic.rack[7].node[6].app 	"End-to-End Delay"
field count 35535
field mean 0.00088380288130257
field stddev 0.00022831388004668
field sum 31.405935387087
field sqrsum 0.029608945098536
field min 0.000133365788
field max 0.001247476827
statistic Basic.rack[7].node[6].app 	hops
field count 35535
field mean 4.2279724215562
field stddev 0.52580710133231
field sum 150241
field sqrsum 645039
field min 3
field max 5
statistic Basic.rack[7].node[7].app 	throughput
field count 35652
field mean 17826.5
field stddev 10291.990235129
field sum 635550378
field sqrsum 15105973234430
field min 1
field max 35652
statistic Basic.rack[7].node[7].app 	"End-to-End Delay"
field count 35652
field mean 0.00088459222351938
field stddev 0.00023088181312379
field sum 31.537481952913
field sqrsum 0.029798238165998
field min 9.4416e-006
field max 0.001247474854
statistic Basic.rack[7].node[7].app 	hops
field count 35652
field mean 4.236059688096
field stddev 0.52933686497257
field sum 151024
field sqrsum 649736
field min 3
field max 5
statistic Basic.rack[7].node[8].app 	throughput
field count 35404
field mean 17702.5
field stddev 10220.398801743
field sum 626739310
field sqrsum 14792927933930
field min 1
field max 35404
statistic Basic.rack[7].node[8].app 	"End-to-End Delay"
field count 35404
field mean 0.00088525455016106
field stddev 0.0002288285862507
field sum 31.341552093902
field sqrsum 0.029599041962549
field min 0.000311969092
field max 0.001247477349
statistic Basic.rack[7].node[8].app 	hops
field count 35404
field mean 4.2300022596317
field stddev 0.52731216500599
field sum 149759
field sqrsum 643325
field min 3
field max 5
statistic Basic.rack[7].node[9].app 	throughput
field count 35908
field mean 17954.5
field stddev 10365.891069593
field sum 644710186
field sqrsum 15433717142654
field min 1
field max 35908
statistic Basic.rack[7].node[9].app 	"End-to-End Delay"
field count 35908
field mean 0.00088462220764247
field stddev 0.00023074912161164
field sum 31.765014232026
field sqrsum 0.0300119108726
field min 1.9602065e-005
field max 0.001247477748
statistic Basic.rack[7].node[9].app 	hops
field count 35908
field mean 4.233457725298
field stddev 0.53020088950288
field sum 152015
field sqrsum 653643
field min 3
field max 5
statistic Basic.rack[7].eps.queue[0] 	dropsum
field count 0
field mean nan
field stddev nan
field sum 0
field sqrsum 0
field min nan
field max nan
statistic Basic.rack[7].eps.queue[1] 	dropsum
field count 0
field mean nan
field stddev nan
field sum 0
field sqrsum 0
field min nan
field max nan
statistic Basic.rack[7].eps.queue[2] 	dropsum
field count 0
field mean nan
field stddev nan
field sum 0
field sqrsum 0
field min nan
field max nan
statistic Basic.rack[7].eps.queue[3] 	dropsum
field count 0
field mean nan
field stddev nan
field sum 0
field sqrsum 0
field min nan
field max nan
statistic Basic.rack[8].node[0].app 	throughput
field count 35839
field mean 17920
field stddev 10345.972485304
field sum 642234880
field sqrsum 15344917987840
field min 1
field max 35839
statistic Basic.rack[8].node[0].app 	"End-to-End Delay"
field count 35839
field mean 0.00089107964380158
field stddev 0.00022990009031749
field sum 31.935403354205
field sqrsum 0.030351171344185
field min 0.000426877003
field max 0.001256066777
statistic Basic.rack[8].node[0].app 	hops
field count 35839
field mean 5.2319819191384
field stddev 0.52753054300834
field sum 187509
field sqrsum 991017
field min 4
field max 6
statistic Basic.rack[8].node[1].app 	throughput
field count 34954
field mean 17477.5
field stddev 10090.494991162
field sum 610908535
field sqrsum 14236001591105
field min 1
field max 34954
statistic Basic.rack[8].node[1].app 	"End-to-End Delay"
field count 34954
field mean 0.00089300146065598
field stddev 0.00023006476740054
field sum 31.213973055769
field sqrsum 0.029724178733177
field min 0.000178201708
field max 0.00125606945
statistic Basic.rack[8].node[1].app 	hops
field count 34954
field mean 5.2331063683699
field stddev 0.52855002389359
field sum 182918
field sqrsum 966994
field min 4
field max 6
statistic Basic.rack[8].node[2].app 	throughput
field count 35417
field mean 17709
field stddev 10224.151578493
field sum 627199653
field sqrsum 14809229140085
field min 1
field max 35417
statistic Basic.rack[8].node[2].app 	"End-to-End Delay"
field count 35417
field mean 0.00089348002252201
field stddev 0.00022894997590103
field sum 31.644381957662
field sqrsum 0.030130062231555
field min 0.000243137474
field max 0.001256066596
statistic Basic.rack[8].node[2].app 	hops
field count 35417
field mean 5.2343789705509
field stddev 0.52542699850857
field sum 185386
field sqrsum 980158
field min 4
field max 6
statistic Basic.rack[8].node[3].app 	throughput
field count 35311
field mean 17656
field stddev 10193.552014223
field sum 623451016
field sqrsum 14676660367656
field min 1
field max 35311
statistic Basic.rack[8].node[3].app 	"End-to-End Delay"
field count 35311
field mean 0.00089259987288571
field stddev 0.00022997011172675
field sum 31.518594111467
field sqrsum 0.030000906665707
field min 7.2002699e-005
field max 0.001256069222
statistic Basic.rack[8].node[3].app 	hops
field count 35311
field mean 5.2296451530684
field stddev 0.52957845549096
field sum 184664
field sqrsum 975630
field min 4
field max 6
statistic Basic.rack[8].node[4].app 	throughput
field count 35506
field mean 17753.5
field stddev 10249.843665474
field sum 630355771
field sqrsum 14921151455341
field min 1
field max 35506
statistic Basic.rack[8].node[4].app 	"End-to-End Delay"
field count 35506
field mean 0.00089278268300617
field stddev 0.00023069756073902
field sum 31.699141942817
field sqrsum 0.030190069540372
field min 0.000401059748
field max 0.001256069237
statistic Basic.rack[8].node[4].app 	hops
field count 35506
field mean 5.2307778966935
field stddev 0.53105252467135
field sum 185724
field sqrsum 981494
field min 4
field max 6
statistic Basic.rack[8].node[5].app 	throughput
field count 35465
field mean 17733
field stddev 10238.007984955
field sum 628900845
field sqrsum 14869521945565
field min 1
field max 35465
statistic Basic.rack[8].node[5].app 	"End-to-End Delay"
field count 35465
field mean 0.00089133549457993
field stddev 0.00023005912207736
field sum 31.611213315277
field sqrsum 0.030053206663067
field min 0.000146913279
field max 0.001256069153
statistic Basic.rack[8].node[5].app 	hops
field count 35465
field mean 5.2271817284647
field stddev 0.53017977485537
field sum 185382
field sqrsum 978994
field min 4
field max 6
statistic Basic.rack[8].node[6].app 	throughput
field count 35478
field mean 17739.5
field stddev 10241.760761705
field sum 629361981
field sqrsum 14885879361939
field min 1
field max 35478
statistic Basic.rack[8].node[6].app 	"End-to-End Delay"
field count 35478
field mean 0.00089204288944811
field stddev 0.00022877636572626
field sum 31.64789763184
field sqrsum 0.030088099465857
field min 0.000121385641
field max 0.001256068793
statistic Basic.rack[8].node[6].app 	hops
field count 35478
field mean 5.2291842832178
field stddev 0.52642499910107
field sum 185521
field sqrsum 979955
field min 4
field max 6
statistic Basic.rack[8].node[7].app 	throughput
field count 35583
field mean 17792
field stddev 10272.07165084
field sum 633092736
field sqrsum 15018436914304
field min 1
field max 35583
statistic Basic.rack[8].node[7].app 	"End-to-End Delay"
field count 35583
field mean 0.00089248279094519
field stddev 0.00023036776318469
field sum 31.757215150203
field sqrsum 0.03023108006719
field min 0.000406194851
field max 0.001256065166
statistic Basic.rack[8].node[7].app 	hops
field count 35583
field mean 5.2324986650929
field stddev 0.5294311101777
field sum 186188
field sqrsum 984202
field min 4
field max 6
statistic Basic.rack[8].node[8].app 	throughput
field count 35458
field mean 17729.5
field stddev 10235.987259013
field sum 628652611
field sqrsum 14860719071429
field min 1
field max 35458
statistic Basic.rack[8].node[8].app 	"End-to-End Delay"
field count 35458
field mean 0.00089301242460739
field stddev 0.00023100991127465
field sum 31.664434551729
field sqrsum 0.030168916811263
field min 8.94145e-005
field max 0.001256068815
statistic Basic.rack[8].node[8].app 	hops
field count 35458
field mean 5.2333464944441
field stddev 0.53067590789976
field sum 185564
field sqrsum 981106
field min 4
field max 6
statistic Basic.rack[8].node[9].app 	throughput
field count 35176
field mean 17588.5
field stddev 10154.580871049
field sum 618693076
field sqrsum 14508971325276
field min 1
field max 35176
statistic Basic.rack[8].node[9].app 	"End-to-End Delay"
field count 35176
field mean 0.00089347044681124
field stddev 0.0002297359211999
field sum 31.428716437032
field sqrsum 0.029937116343694
field min 0.00016087551
field max 0.001256069257
statistic Basic.rack[8].node[9].app 	hops
field count 35176
field mean 5.2314362065044
field stddev 0.52839427254593
field sum 184021
field sqrsum 972515
field min 4
field max 6
statistic Basic.rack[8].eps.queue[0] 	dropsum
field count 0
field mean nan
field stddev nan
field sum 0
field sqrsum 0
field min nan
field max nan
statistic Basic.rack[8].eps.queue[1] 	dropsum
field count 1036765
field mean 518383
field stddev 299288.42025527
field sum 537441350995
field sqrsum 3.7146710065639e+017
field min 1
field max 1036765
statistic Basic.rack[8].eps.queue[2] 	dropsum
field count 0
field mean nan
field stddev nan
field sum 0
field sqrsum 0
field min nan
field max nan
statistic Basic.rack[8].eps.queue[3] 	dropsum
field count 0
field mean nan
field stddev nan
field sum 0
field sqrsum 0
field min nan
field max nan
statistic Basic.rack[9].node[0].app 	throughput
field count 115212
field mean 57606.5
field stddev 33258.983944192
field sum 6636960078
field sqrsum 5.0977384199105e+014
field min 1
field max 115212
statistic Basic.rack[9].node[0].app 	"End-to-End Delay"
field count 115212
field mean 0.00019265438299069
field stddev 0.00040126900000204
field sum 22.196096773123
field sqrsum 0.022827083067317
field min 9.4416e-006
field max 0.001259694356
statistic Basic.rack[9].node[0].app 	hops
field count 115212
field mean 5.5563656563552
field stddev 0.49681491034296
field sum 640160
field sqrsum 3585400
field min 5
field max 6
statistic Basic.rack[9].node[1].app 	throughput
field count 114143
field mean 57072
field stddev 32950.390225307
field sum 6514369296
field sqrsum 4.9571527449198e+014
field min 1
field max 114143
statistic Basic.rack[9].node[1].app 	"End-to-End Delay"
field count 114143
field mean 0.00019094757540666
field stddev 0.00039939936383035
field sum 21.795329099642
field sqrsum 0.022369680174129
field min 9.4416e-006
field max 0.001259694509
statistic Basic.rack[9].node[1].app 	hops
field count 114143
field mean 5.5548128225121
field stddev 0.49698865019284
field sum 634043
field sqrsum 3550183
field min 5
field max 6
statistic Basic.rack[9].node[2].app 	throughput
field count 115266
field mean 57633.5
field stddev 33274.57240146
field sum 6643183011
field sqrsum 5.1049096969162e+014
field min 1
field max 115266
statistic Basic.rack[9].node[2].app 	"End-to-End Delay"
field count 115266
field mean 0.00019217603300104
field stddev 0.00040065092832688
field sum 22.151362619898
field sqrsum 0.022759433235404
field min 9.4416e-006
field max 0.001259694759
statistic Basic.rack[9].node[2].app 	hops
field count 115266
field mean 5.5545260527823
field stddev 0.49702017332254
field sum 640248
field sqrsum 3584748
field min 5
field max 6
statistic Basic.rack[9].node[3].app 	throughput
field count 114145
field mean 57073
field stddev 32950.967575576
field sum 6514597585
field sqrsum 4.9574133242574e+014
field min 1
field max 114145
statistic Basic.rack[9].node[3].app 	"End-to-End Delay"
field count 114145
field mean 0.00019604459227684
field stddev 0.00040493149193996
field sum 22.37750998544
field sqrsum 0.023103125931941
field min 9.4416e-006
field max 0.001259694199
statistic Basic.rack[9].node[3].app 	hops
field count 114145
field mean 5.555845634938
field stddev 0.49687365391156
field sum 634172
field sqrsum 3551542
field min 5
field max 6
statistic Basic.rack[9].node[4].app 	throughput
field count 115150
field mean 57575.5
field stddev 33241.086085847
field sum 6629818825
field sqrsum 5.0895130173878e+014
field min 1
field max 115150
statistic Basic.rack[9].node[4].app 	"End-to-End Delay"
field count 115150
field mean 0.00019271346937888
field stddev 0.0004014968138773
field sum 22.190955998978
field sqrsum 0.022838479402106
field min 9.4416e-006
field max 0.001259694656
statistic Basic.rack[9].node[4].app 	hops
field count 115150
field mean 5.556170212766
field stddev 0.49683704662373
field sum 639793
field sqrsum 3583223
field min 5
field max 6
statistic Basic.rack[9].node[5].app 	throughput
field count 114694
field mean 57347.5
field stddev 33109.45022447
field sum 6577414165
field sqrsum 5.029288192984e+014
field min 1
field max 114694
statistic Basic.rack[9].node[5].app 	"End-to-End Delay"
field count 114694
field mean 0.00019302090365704
field stddev 0.00040184154440162
field sum 22.13833952404
field sqrsum 0.022793401058781
field min 9.4416e-006
field max 0.001259694027
statistic Basic.rack[9].node[5].app 	hops
field count 114694
field mean 5.5534814375643
field stddev 0.4971336748095
field sum 636951
field sqrsum 3565641
field min 5
field max 6
statistic Basic.rack[9].node[6].app 	throughput
field count 114464
field mean 57232.5
field stddev 33043.054943513
field sum 6551060880
field sqrsum 4.9990927206584e+014
field min 1
field max 114464
statistic Basic.rack[9].node[6].app 	"End-to-End Delay"
field count 114464
field mean 0.00019088859267959
field stddev 0.00039943220595821
field sum 21.849871872477
field sqrsum 0.022433015066177
field min 9.4416e-006
field max 0.001259694318
statistic Basic.rack[9].node[6].app 	hops
field count 114464
field mean 5.5551177662846
field stddev 0.49695491687943
field sum 635861
field sqrsum 3560551
field min 5
field max 6
statistic Basic.rack[9].node[7].app 	throughput
field count 114317
field mean 57159
field stddev 33000.619698727
field sum 6534245403
field sqrsum 4.9798573257164e+014
field min 1
field max 114317
statistic Basic.rack[9].node[7].app 	"End-to-End Delay"
field count 114317
field mean 0.00019151082380653
field stddev 0.00040035786536951
field sum 21.892942845091
field sqrsum 0.022516037950056
field min 9.4416e-006
field max 0.001259693933
statistic Basic.rack[9].node[7].app 	hops
field count 114317
field mean 5.5538633798998
field stddev 0.49709244396481
field sum 634901
field sqrsum 3554401
field min 5
field max 6
statistic Basic.rack[9].node[8].app 	throughput
field count 115269
field mean 57635
field stddev 33275.438426864
field sum 6643528815
field sqrsum 5.105308298271e+014
field min 1
field max 115269
statistic Basic.rack[9].node[8].app 	"End-to-End Delay"
field count 115269
field mean 0.00019296324605103
field stddev 0.00040162538251312
field sum 22.242680409056
field sqrsum 0.022885088008702
field min 9.4416e-006
field max 0.001259694359
statistic Basic.rack[9].node[8].app 	hops
field count 115269
field mean 5.5544855945658
field stddev 0.49702461014409
field sum 640260
field sqrsum 3584790
field min 5
field max 6
statistic Basic.rack[9].node[9].app 	throughput
field count 115285
field mean 57643
field stddev 33280.057229017
field sum 6645373255
field sqrsum 5.1074345225954e+014
field min 1
field max 115285
statistic Basic.rack[9].node[9].app 	"End-to-End Delay"
field count 115285
field mean 0.00019373595433632
field stddev 0.00040247487856893
field sum 22.334849495663
field sqrsum 0.023001460620012
field min 9.4416e-006
field max 0.001259693134
statistic Basic.rack[9].node[9].app 	hops
field count 115285
field mean 5.5563516502581
field stddev 0.49681649783975
field sum 640564
field sqrsum 3587654
field min 5
field max 6
statistic Basic.rack[9].eps.queue[0] 	dropsum
field count 0
field mean nan
field stddev nan
field sum 0
field sqrsum 0
field min nan
field max nan
statistic Basic.rack[9].eps.queue[1] 	dropsum
field count 314018
field mean 157009.5
field stddev 90649.332752524
field sum 49303809171
field sqrsum 1.0321538800102e+016
field min 1
field max 314018
statistic Basic.rack[9].eps.queue[2] 	dropsum
field count 0
field mean nan
field stddev nan
field sum 0
field sqrsum 0
field min nan
field max nan
statistic Basic.rack[9].eps.queue[3] 	dropsum
field count 0
field mean nan
field stddev nan
field sum 0
field sqrsum 0
field min nan
field max nan
statistic Basic.rack[10].node[0].app 	throughput
field count 125759
field mean 62880
field stddev 36303.640588789
field sum 7907725920
field sqrsum 6.6298110522416e+014
field min 1
field max 125759
statistic Basic.rack[10].node[0].app 	"End-to-End Delay"
field count 125759
field mean 0.00017559830881468
field stddev 0.00032225023812287
field sum 22.083067718226
field sqrsum 0.016937116014747
field min 8.496e-007
field max 0.000837248011
statistic Basic.rack[10].node[0].app 	hops
field count 125759
field mean 4.7929452365238
field stddev 0.73744036638638
field sum 602756
field sqrsum 2957366
field min 4
field max 6
statistic Basic.rack[10].node[1].app 	throughput
field count 125436
field mean 62718.5
field stddev 36210.398520315
field sum 7867157766
field sqrsum 6.5788582340991e+014
field min 1
field max 125436
statistic Basic.rack[10].node[1].app 	"End-to-End Delay"
field count 125436
field mean 0.00017481839806002
field stddev 0.00032189542795549
field sum 21.928520579057
field sqrsum 0.016830665406732
field min 8.496e-007
field max 0.000837110909
statistic Basic.rack[10].node[1].app 	hops
field count 125436
field mean 4.7906502120603
field stddev 0.73760589693389
field sum 600920
field sqrsum 2947042
field min 4
field max 6
statistic Basic.rack[10].node[2].app 	throughput
field count 125659
field mean 62830
field stddev 36274.77307533
field sum 7895154970
field sqrsum 6.6140081730181e+014
field min 1
field max 125659
statistic Basic.rack[10].node[2].app 	"End-to-End Delay"
field count 125659
field mean 0.00017489791136631
field stddev 0.00032175991212205
field sum 21.977496644379
field sqrsum 0.016853120763471
field min 8.496e-007
field max 0.000837043121
statistic Basic.rack[10].node[2].app 	hops
field count 125659
field mean 4.7914514678614
field stddev 0.7369851362456
field sum 602089
field sqrsum 2953131
field min 4
field max 6
statistic Basic.rack[10].node[3].app 	throughput
field count 125237
field mean 62619
field stddev 36152.95216853
field sum 7842215703
field sqrsum 6.5475965940298e+014
field min 1
field max 125237
statistic Basic.rack[10].node[3].app 	"End-to-End Delay"
field count 125237
field mean 0.00017574157935433
field stddev 0.00032257239531944
field sum 22.009348173598
field sqrsum 0.016899132882605
field min 8.496e-007
field max 0.000837120901
statistic Basic.rack[10].node[3].app 	hops
field count 125237
field mean 4.7905730734527
field stddev 0.7391142059276
field sum 599957
field sqrsum 2942553
field min 4
field max 6
statistic Basic.rack[10].node[4].app 	throughput
field count 125785
field mean 62893
field stddev 36311.146142289
field sum 7910996005
field sqrsum 6.6339239199128e+014
field min 1
field max 125785
statistic Basic.rack[10].node[4].app 	"End-to-End Delay"
field count 125785
field mean 0.00017402170701211
field stddev 0.00032099076096315
field sum 21.889320416519
field sqrsum 0.016769379975981
field min 8.496e-007
field max 0.000837128782
statistic Basic.rack[10].node[4].app 	hops
field count 125785
field mean 4.7911754183726
field stddev 0.73557382624976
field sum 602658
field sqrsum 2955498
field min 4
field max 6
statistic Basic.rack[10].node[5].app 	throughput
field count 125589
field mean 62795
field stddev 36254.565815908
field sum 7886361255
field sqrsum 6.6029611122322e+014
field min 1
field max 125589
statistic Basic.rack[10].node[5].app 	"End-to-End Delay"
field count 125589
field mean 0.00017493386129476
field stddev 0.00032181014458809
field sum 21.969768706147
field sqrsum 0.016849371936761
field min 8.496e-007
field max 0.000837139547
statistic Basic.rack[10].node[5].app 	hops
field count 125589
field mean 4.7913033784806
field stddev 0.73730543682984
field sum 601735
field sqrsum 2951367
field min 4
field max 6
statistic Basic.rack[10].node[6].app 	throughput
field count 125254
field mean 62627.5
field stddev 36157.859645818
field sum 7844344885
field sqrsum 6.5502633093216e+014
field min 1
field max 125254
statistic Basic.rack[10].node[6].app 	"End-to-End Delay"
field count 125254
field mean 0.00017421015280985
field stddev 0.00032126924844506
field sum 21.820518480045
field sqrsum 0.016729210232645
field min 8.496e-007
field max 0.000837103028
statistic Basic.rack[10].node[6].app 	hops
field count 125254
field mean 4.7889648234787
field stddev 0.73699545245753
field sum 599837
field sqrsum 2940631
field min 4
field max 6
statistic Basic.rack[10].node[7].app 	throughput
field count 125515
field mean 62758
field stddev 36233.203855948
field sum 7877070370
field sqrsum 6.5912961735049e+014
field min 1
field max 125515
statistic Basic.rack[10].node[7].app 	"End-to-End Delay"
field count 125515
field mean 0.00017467721244279
field stddev 0.00032164321545817
field sum 21.924610319757
field sqrsum 0.016814700110871
field min 8.496e-007
field max 0.000837058265
statistic Basic.rack[10].node[7].app 	hops
field count 125515
field mean 4.7900808668287
field stddev 0.73730120608606
field sum 601227
field sqrsum 2948157
field min 4
field max 6
statistic Basic.rack[10].node[8].app 	throughput
field count 125280
field mean 62640.5
field stddev 36165.365199317
field sum 7847601840
field sqrsum 6.5543432154408e+014
field min 1
field max 125280
statistic Basic.rack[10].node[8].app 	"End-to-End Delay"
field count 125280
field mean 0.00017199582568856
field stddev 0.00031950199027592
field sum 21.547637042263
field sqrsum 0.016494774593085
field min 8.496e-007
field max 0.00083709462
statistic Basic.rack[10].node[8].app 	hops
field count 125280
field mean 4.7843390804598
field stddev 0.73504574952597
field sum 599382
field sqrsum 2935334
field min 4
field max 6
statistic Basic.rack[10].node[9].app 	throughput
field count 125658
field mean 62829.5
field stddev 36274.484400195
field sum 7895029311
field sqrsum 6.6138502711753e+014
field min 1
field max 125658
statistic Basic.rack[10].node[9].app 	"End-to-End Delay"
field count 125658
field mean 0.00017602409835241
field stddev 0.00032254291191582
field sum 22.118836150767
field sqrsum 0.016966039735463
field min 8.496e-007
field max 0.000837076492
statistic Basic.rack[10].node[9].app 	hops
field count 125658
field mean 4.7921899123016
field stddev 0.73838877006552
field sum 602177
field sqrsum 2954257
field min 4
field max 6
statistic Basic.rack[10].eps.queue[0] 	dropsum
field count 0
field mean nan
field stddev nan
field sum 0
field sqrsum 0
field min nan
field max nan
statistic Basic.rack[10].eps.queue[1] 	dropsum
field count 3999063
field mean 1999532
field stddev 1154430.1941194
field sum 7996254438516
field sqrsum 2.1318352841222e+019
field min 1
field max 3999063
statistic Basic.rack[10].eps.queue[2] 	dropsum
field count 0
field mean nan
field stddev nan
field sum 0
field sqrsum 0
field min nan
field max nan
statistic Basic.rack[10].eps.queue[3] 	dropsum
field count 0
field mean nan
field stddev nan
field sum 0
field sqrsum 0
field min nan
field max nan
statistic Basic.rack[11].node[0].app 	throughput
field count 37094
field mean 18547.5
field stddev 10708.259779255
field sum 688000965
field sqrsum 17014034530795
field min 1
field max 37094
statistic Basic.rack[11].node[0].app 	"End-to-End Delay"
field count 37094
field mean 0.00061746260234669
field stddev 0.00029500050585748
field sum 22.904157771448
field sqrsum 0.017370490257752
field min 9.4416e-006
field max 0.001248506978
statistic Basic.rack[11].node[0].app 	hops
field count 37094
field mean 4.139402598803
field stddev 0.87362509163428
field sum 153547
field sqrsum 663903
field min 3
field max 5
statistic Basic.rack[11].node[1].app 	throughput
field count 37051
field mean 18526
field stddev 10695.846748466
field sum 686406826
field sqrsum 16954935009026
field min 1
field max 37051
statistic Basic.rack[11].node[1].app 	"End-to-End Delay"
field count 37051
field mean 0.00061384071521721
field stddev 0.00029323132926212
field sum 22.743412339513
field sqrsum 0.01714656238864
field min 6.5811381e-005
field max 0.001248510084
statistic Basic.rack[11].node[1].app 	hops
field count 37051
field mean 4.1389166284311
field stddev 0.87530208571334
field sum 153351
field sqrsum 663093
field min 3
field max 5
statistic Basic.rack[11].node[2].app 	throughput
field count 37453
field mean 18727
field stddev 10811.894152583
field sum 701382331
field sqrsum 17512815422739
field min 1
field max 37453
statistic Basic.rack[11].node[2].app 	"End-to-End Delay"
field count 37453
field mean 0.00061857406993502
field stddev 0.00029730528149197
field sum 23.167454641276
field sqrsum 0.017641185106943
field min 0.000414727298
[...]
field sum 389037
field sqrsum 2218387
field min 5
field max 7
statistic Basic.rack[13].node[2].app 	throughput
field count 68829
field mean 34415
field stddev 19869.365176069
field sum 2368750035
field sqrsum 1.0869325368936e+014
field min 1
field max 68829
statistic Basic.rack[13].node[2].app 	"End-to-End Delay"
field count 68829
field mean 0.00067002833773715
field stddev 0.00020431327260385
field sum 46.11738045811
field sqrsum 0.033773101838026
field min 0.000260744924
field max 0.00084352346
statistic Basic.rack[13].node[2].app 	hops
field count 68829
field mean 5.616106582981
field stddev 0.68157198079026
field sum 386551
field sqrsum 2202885
field min 5
field max 7
statistic Basic.rack[13].node[3].app 	throughput
field count 68882
field mean 34441.5
field stddev 19884.664958203
field sum 2372399403
field sqrsum 1.0894453458476e+014
field min 1
field max 68882
statistic Basic.rack[13].node[3].app 	"End-to-End Delay"
field count 68882
field mean 0.00067103952817203
field stddev 0.00020411677415053
field sum 46.222544779546
field sqrsum 0.033886989031319
field min 8.4408174e-005
field max 0.000843554671
statistic Basic.rack[13].node[3].app 	hops
field count 68882
field mean 5.6184344240876
field stddev 0.68435990867974
field sum 387009
field sqrsum 2206645
field min 5
field max 7
statistic Basic.rack[13].node[4].app 	throughput
field count 69406
field mean 34703.5
field stddev 20035.930728735
field sum 2408631121
field sqrsum 1.1144977059979e+014
field min 1
field max 69406
statistic Basic.rack[13].node[4].app 	"End-to-End Delay"
field count 69406
field mean 0.00067074449854256
field stddev 0.00020416385186803
field sum 46.553692665845
field sqrsum 0.034118633418475
field min 0.000214839362
field max 0.000843505458
statistic Basic.rack[13].node[4].app 	hops
field count 69406
field mean 5.6178572457713
field stddev 0.68324001003435
field sum 389913
field sqrsum 2222875
field min 5
field max 7
statistic Basic.rack[13].node[5].app 	throughput
field count 68966
field mean 34483.5
field stddev 19908.91366951
field sum 2378189061
field sqrsum 1.0934358391697e+014
field min 1
field max 68966
statistic Basic.rack[13].node[5].app 	"End-to-End Delay"
field count 68966
field mean 0.00066982625578335
field stddev 0.00020443271522192
field sum 46.195237556355
field sqrsum 0.033825018980326
field min 0.000164774737
field max 0.000843493844
statistic Basic.rack[13].node[5].app 	hops
field count 68966
field mean 5.6131572078995
field stddev 0.68233100360858
field sum 387117
field sqrsum 2205057
field min 5
field max 7
statistic Basic.rack[13].node[6].app 	throughput
field count 69242
field mean 34621.5
field stddev 19988.58800666
field sum 2397261903
field sqrsum 1.1066160487898e+014
field min 1
field max 69242
statistic Basic.rack[13].node[6].app 	"End-to-End Delay"
field count 69242
field mean 0.00067117850351768
field stddev 0.00020414799729048
field sum 46.473741940572
field sqrsum 0.034077892513138
field min 7.8016809e-005
field max 0.000843444978
statistic Basic.rack[13].node[6].app 	hops
field count 69242
field mean 5.6199849802143
field stddev 0.68565387775466
field sum 389139
field sqrsum 2219507
field min 5
field max 7
statistic Basic.rack[13].node[7].app 	throughput
field count 69237
field mean 34619
field stddev 19987.144630987
field sum 2396915703
field sqrsum 1.1063763399098e+014
field min 1
field max 69237
statistic Basic.rack[13].node[7].app 	"End-to-End Delay"
field count 69237
field mean 0.00067155327651814
field stddev 0.00020402876147359
field sum 46.496334206286
field sqrsum 0.034106903477977
field min 0.000112216684
field max 0.000843456951
statistic Basic.rack[13].node[7].app 	hops
field count 69237
field mean 5.6202752863353
field stddev 0.68378014207811
field sum 389131
field sqrsum 2219395
field min 5
field max 7
statistic Basic.rack[13].node[8].app 	throughput
field count 69445
field mean 34723
field stddev 20047.189058984
field sum 2411338735
field sqrsum 1.116377494143e+014
field min 1
field max 69445
statistic Basic.rack[13].node[8].app 	"End-to-End Delay"
field count 69445
field mean 0.00067136765101115
field stddev 0.00020409528023229
field sum 46.62312652447
field sqrsum 0.034193940661268
field min 1.887453e-005
field max 0.000843444932
statistic Basic.rack[13].node[8].app 	hops
field count 69445
field mean 5.6166174670603
field stddev 0.68354754618663
field sum 390046
field sqrsum 2223186
field min 5
field max 7
statistic Basic.rack[13].node[9].app 	throughput
field count 68998
field mean 34499.5
field stddev 19918.151273817
field sum 2380396501
field sqrsum 1.094958586495e+014
field min 1
field max 68998
statistic Basic.rack[13].node[9].app 	"End-to-End Delay"
field count 68998
field mean 0.00067050801344933
field stddev 0.00020427690778298
field sum 46.263711911977
field sqrsum 0.033899369180409
field min 7.6826676e-005
field max 0.000843501944
statistic Basic.rack[13].node[9].app 	hops
field count 68998
field mean 5.6160903214586
field stddev 0.68343779109797
field sum 387499
field sqrsum 2208457
field min 5
field max 7
statistic Basic.rack[13].eps.queue[0] 	dropsum
field count 0
field mean nan
field stddev nan
field sum 0
field sqrsum 0
field min nan
field max nan
statistic Basic.rack[13].eps.queue[1] 	dropsum
field count 1308814
field mean 654407.5
field stddev 377822.20194752
field sum 856497697705
field sqrsum 7.4733107064901e+017
field min 1
field max 1308814
statistic Basic.rack[13].eps.queue[2] 	dropsum
field count 0
field mean nan
field stddev nan
field sum 0
field sqrsum 0
field min nan
field max nan
statistic Basic.rack[13].eps.queue[3] 	dropsum
field count 0
field mean nan
field stddev nan
field sum 0
field sqrsum 0
field min nan
field max nan
statistic Basic.rack[14].node[0].app 	throughput
field count 37153
field mean 18577
field stddev 10725.291612197
field sum 690191281
field sqrsum 17095347839089
field min 1
field max 37153
statistic Basic.rack[14].node[0].app 	"End-to-End Delay"
field count 37153
field mean 0.00061597067388738
field stddev 0.00029452270874485
field sum 22.885158446938
field sqrsum 0.017319285662484
field min 0.000287854653
field max 0.001248964352
statistic Basic.rack[14].node[0].app 	hops
field count 37153
field mean 6.1369472182596
field stddev 0.87587185174901
field sum 228006
field sqrsum 1427762
field min 5
field max 7
statistic Basic.rack[14].node[1].app 	throughput
field count 36832
field mean 18416.5
field stddev 10632.626893984
field sum 678316528
field sqrsum 16656062345040
field min 1
field max 36832
statistic Basic.rack[14].node[1].app 	"End-to-End Delay"
field count 36832
field mean 0.00061470249271398
field stddev 0.00029427637668826
field sum 22.640722211641
field sqrsum 0.017106820896768
field min 0.000415177286
field max 0.001249092223
statistic Basic.rack[14].node[1].app 	hops
field count 36832
field mean 6.1330093397046
field stddev 0.87795297364413
field sum 225891
field sqrsum 1413781
field min 5
field max 7
statistic Basic.rack[14].node[2].app 	throughput
field count 36777
field mean 18389
field stddev 10616.74976158
field sum 676292253
field sqrsum 16581558889805
field min 1
field max 36777
statistic Basic.rack[14].node[2].app 	"End-to-End Delay"
field count 36777
field mean 0.00061550934239581
field stddev 0.00029266495947072
field sum 22.636587085291
field sqrsum 0.017082997413142
field min 0.000270019653
field max 0.00124911876
statistic Basic.rack[14].node[2].app 	hops
field count 36777
field mean 6.1320118552356
field stddev 0.87371650547852
field sum 225517
field sqrsum 1410947
field min 5
field max 7
statistic Basic.rack[14].node[3].app 	throughput
field count 37124
field mean 18562.5
field stddev 10716.920033293
field sum 689114250
field sqrsum 17055347982750
field min 1
field max 37124
statistic Basic.rack[14].node[3].app 	"End-to-End Delay"
field count 37124
field mean 0.00061490041433908
field stddev 0.0002948388279617
field sum 22.827562981924
field sqrsum 0.017263777893409
field min 0.000137272345
field max 0.001248977267
statistic Basic.rack[14].node[3].app 	hops
field count 37124
field mean 6.1385357181338
field stddev 0.87786168248375
field sum 227887
field sqrsum 1427501
field min 5
field max 7
statistic Basic.rack[14].node[4].app 	throughput
field count 37495
field mean 18748
field stddev 10824.018508237
field sum 702956260
field sqrsum 17571797631220
field min 1
field max 37495
statistic Basic.rack[14].node[4].app 	"End-to-End Delay"
field count 37495
field mean 0.00061667502845883
field stddev 0.00029462309218386
field sum 23.122230192064
field sqrsum 0.017513484886923
field min 0.00029515963
field max 0.001248964927
statistic Basic.rack[14].node[4].app 	hops
field count 37495
field mean 6.1428723829844
field stddev 0.87425730155111
field sum 230327
field sqrsum 1443527
field min 5
field max 7
statistic Basic.rack[14].node[5].app 	throughput
field count 37287
field mean 18644
field stddev 10763.974080236
field sum 695178828
field sqrsum 17280987032700
field min 1
field max 37287
statistic Basic.rack[14].node[5].app 	"End-to-End Delay"
field count 37287
field mean 0.00061987389564245
field stddev 0.00029674412722536
field sum 23.11323794682
field sqrsum 0.017610589021622
field min 0.000391529251
field max 0.001248989538
statistic Basic.rack[14].node[5].app 	hops
field count 37287
field mean 6.1425966154424
field stddev 0.87410637114071
field sum 229039
field sqrsum 1435383
field min 5
field max 7
statistic Basic.rack[14].node[6].app 	throughput
field count 36616
field mean 18308.5
field stddev 10570.273064905
field sum 670384036
field sqrsum 16364744702796
field min 1
field max 36616
statistic Basic.rack[14].node[6].app 	"End-to-End Delay"
field count 36616
field mean 0.00061553484999094
field stddev 0.00029432221119865
field sum 22.538424067268
field sqrsum 0.017044980503316
field min 4.4233346e-005
field max 0.001248965265
statistic Basic.rack[14].node[6].app 	hops
field count 36616
field mean 6.1357603233559
field stddev 0.87638438008855
field sum 224667
field sqrsum 1406625
field min 5
field max 7
statistic Basic.rack[14].node[7].app 	throughput
field count 37066
field mean 18533.5
field stddev 10700.176875485
field sum 686962711
field sqrsum 16975535551521
field min 1
field max 37066
statistic Basic.rack[14].node[7].app 	"End-to-End Delay"
field count 37066
field mean 0.00061627266874686
field stddev 0.00029442397380954
field sum 22.842762739771
field sqrsum 0.017290367536244
field min 0.000377594552
field max 0.001248964468
statistic Basic.rack[14].node[7].app 	hops
field count 37066
field mean 6.1403982086009
field stddev 0.87471438706323
field sum 227600
field sqrsum 1425914
field min 5
field max 7
statistic Basic.rack[14].node[8].app 	throughput
field count 37250
field mean 18625.5
field stddev 10753.293100255
field sum 693799875
field sqrsum 17229594829125
field min 1
field max 37250
statistic Basic.rack[14].node[8].app 	"End-to-End Delay"
field count 37250
field mean 0.00061677297708024
field stddev 0.00029575724217806
field sum 22.974793396239
field sqrsum 0.017428489148159
field min 0.000202584532
field max 0.001248965145
statistic Basic.rack[14].node[8].app 	hops
field count 37250
field mean 6.142067114094
field stddev 0.87649315088934
field sum 228792
field sqrsum 1433872
field min 5
field max 7
statistic Basic.rack[14].node[9].app 	throughput
field count 36955
field mean 18478
field stddev 10668.133935542
field sum 682854490
field sqrsum 16823486070130
field min 1
field max 36955
statistic Basic.rack[14].node[9].app 	"End-to-End Delay"
field count 36955
field mean 0.0006176521934966
field stddev 0.00029554571129737
field sum 22.825336810667
field sqrsum 0.017325950270356
field min 0.000195133125
field max 0.001248990924
statistic Basic.rack[14].node[9].app 	hops
field count 36955
field mean 6.1324854552835
field stddev 0.87630481981034
field sum 226626
field sqrsum 1418158
field min 5
field max 7
statistic Basic.rack[14].eps.queue[0] 	dropsum
field count 0
field mean nan
field stddev nan
field sum 0
field sqrsum 0
field min nan
field max nan
statistic Basic.rack[14].eps.queue[1] 	dropsum
field count 2996529
field mean 1498265
field stddev 865023.55673239
field sum 4489594522185
field sqrsum 8.9688016191905e+018
field min 1
field max 2996529
statistic Basic.rack[14].eps.queue[2] 	dropsum
field count 0
field mean nan
field stddev nan
field sum 0
field sqrsum 0
field min nan
field max nan
statistic Basic.rack[14].eps.queue[3] 	dropsum
field count 0
field mean nan
field stddev nan
field sum 0
field sqrsum 0
field min nan
field max nan
statistic Basic.rack[15].node[0].app 	throughput
field count 38386
field mean 19193.5
field stddev 11081.228053184
field sum 736761691
field sqrsum 18854468434381
field min 1
field max 38386
statistic Basic.rack[15].node[0].app 	"End-to-End Delay"
field count 38386
field mean 0.00069826126581475
field stddev 0.0003046029660077
field sum 26.803456949565
field sqrsum 0.022277289962297
field min 9.4416e-006
field max 0.001248015955
statistic Basic.rack[15].node[0].app 	hops
field count 38386
field mean 4.1647996665451
field stddev 0.78956126421915
field sum 159870
field sqrsum 689756
field min 3
field max 5
statistic Basic.rack[15].node[1].app 	throughput
field count 38509
field mean 19255
field stddev 11116.735094742
field sum 741490795
field sqrsum 19036293180035
field min 1
field max 38509
statistic Basic.rack[15].node[1].app 	"End-to-End Delay"
field count 38509
field mean 0.00069444960890034
field stddev 0.00030402528639015
field sum 26.742559989143
field sqrsum 0.02213070770489
field min 0.000178325525
field max 0.001248014485
statistic Basic.rack[15].node[1].app 	hops
field count 38509
field mean 4.1596509906775
field stddev 0.79311048861531
field sum 160184
field sqrsum 690532
field min 3
field max 5
statistic Basic.rack[15].node[2].app 	throughput
field count 38314
field mean 19157.5
field stddev 11060.443443491
field sum 734000455
field sqrsum 18748573622065
field min 1
field max 38314
statistic Basic.rack[15].node[2].app 	"End-to-End Delay"
field count 38314
field mean 0.00069691060058587
field stddev 0.00030373183837684
field sum 26.701432750847
field sqrsum 0.022143001859638
field min 0.000223953088
field max 0.001248015105
statistic Basic.rack[15].node[2].app 	hops
field count 38314
field mean 4.1692331784726
field stddev 0.78810705567727
field sum 159740
field sqrsum 689790
field min 3
field max 5
statistic Basic.rack[15].node[3].app 	throughput
field count 38333
field mean 19167
field stddev 11065.928271049
field sum 734728611
field sqrsum 18776479473179
field min 1
field max 38333
statistic Basic.rack[15].node[3].app 	"End-to-End Delay"
field count 38333
field mean 0.00069794892600331
field stddev 0.00030446129446091
field sum 26.754476180485
field sqrsum 0.022226507046995
field min 0.000101773547
field max 0.001248015698
statistic Basic.rack[15].node[3].app 	hops
field count 38333
field mean 4.1722275845877
field stddev 0.78798225605602
field sum 159934
field sqrsum 691082
field min 3
field max 5
statistic Basic.rack[15].node[4].app 	throughput
field count 38254
field mean 19127.5
field stddev 11043.122935414
field sum 731703385
field sqrsum 18660631427655
field min 1
field max 38254
statistic Basic.rack[15].node[4].app 	"End-to-End Delay"
field count 38254
field mean 0.00069668425739656
field stddev 0.00030435348547236
field sum 26.650959582448
field sqrsum 0.022110719316294
field min 0.000197202598
field max 0.001248015643
statistic Basic.rack[15].node[4].app 	hops
field count 38254
field mean 4.1692894860668
field stddev 0.78960254536829
field sum 159492
field sqrsum 688818
field min 3
field max 5
statistic Basic.rack[15].node[5].app 	throughput
field count 38273
field mean 19137
field stddev 11048.607762972
field sum 732430401
field sqrsum 18688449968449
field min 1
field max 38273
statistic Basic.rack[15].node[5].app 	"End-to-End Delay"
field count 38273
field mean 0.00069719986744402
field stddev 0.00030457234764918
field sum 26.683930526685
field sqrsum 0.022154308687954
field min 0.000146082702
field max 0.001248015556
statistic Basic.rack[15].node[5].app 	hops
field count 38273
field mean 4.1626995532098
field stddev 0.79096377317986
field sum 159319
field sqrsum 687141
field min 3
field max 5
statistic Basic.rack[15].node[6].app 	throughput
field count 38481
field mean 19241
field stddev 11108.652190973
field sum 740412921
field sqrsum 18994799879641
field min 1
field max 38481
statistic Basic.rack[15].node[6].app 	"End-to-End Delay"
field count 38481
field mean 0.00069572412749668
field stddev 0.00030349890489832
field sum 26.7721601502
field sqrsum 0.022170491563061
field min 6.4263325e-005
field max 0.001248015846
statistic Basic.rack[15].node[6].app 	hops
field count 38481
field mean 4.1596112367142
field stddev 0.79053108191818
field sum 160066
field sqrsum 689860
field min 3
field max 5
statistic Basic.rack[15].node[7].app 	throughput
field count 38414
field mean 19207.5
field stddev 11089.310956953
field sum 737836905
field sqrsum 18895757191415
field min 1
field max 38414
statistic Basic.rack[15].node[7].app 	"End-to-End Delay"
field count 38414
field mean 0.00069624391040483
field stddev 0.00030424884801142
field sum 26.745513574291
field sqrsum 0.022177191014674
field min 0.000230699585
field max 0.001248015704
statistic Basic.rack[15].node[7].app 	hops
field count 38414
field mean 4.1646795439163
field stddev 0.79083465191943
field sum 159982
field sqrsum 690298
field min 3
field max 5
statistic Basic.rack[15].node[8].app 	throughput
field count 38436
field mean 19218.5
field stddev 11095.661809915
field sum 738682266
field sqrsum 18928240611406
field min 1
field max 38436
statistic Basic.rack[15].node[8].app 	"End-to-End Delay"
field count 38436
field mean 0.00069745186518428
field stddev 0.00030383886547911
field sum 26.807259890223
field sqrsum 0.022245017900026
field min 2.9075108e-005
field max 0.001248013118
statistic Basic.rack[15].node[8].app 	hops
field count 38436
field mean 4.1649755437611
field stddev 0.7886090640735
field sum 160085
field sqrsum 690653
field min 3
field max 5
statistic Basic.rack[15].node[9].app 	throughput
field count 38429
field mean 19215
field stddev 11093.641083972
field sum 738413235
field sqrsum 18917900942955
field min 1
field max 38429
statistic Basic.rack[15].node[9].app 	"End-to-End Delay"
field count 38429
field mean 0.00069961592751157
field stddev 0.00030583902422651
field sum 26.885540478342
field sqrsum 0.022404011724259
field min 0.000180610343
field max 0.001248015135
statistic Basic.rack[15].node[9].app 	hops
field count 38429
field mean 4.1678419943272
field stddev 0.79050224854155
field sum 160166
field sqrsum 691560
field min 3
field max 5
statistic Basic.rack[15].eps.queue[0] 	dropsum
field count 0
field mean nan
field stddev nan
field sum 0
field sqrsum 0
field min nan
field max nan
statistic Basic.rack[15].eps.queue[1] 	dropsum
field count 0
field mean nan
field stddev nan
field sum 0
field sqrsum 0
field min nan
field max nan
statistic Basic.rack[15].eps.queue[2] 	dropsum
field count 0
field mean nan
field stddev nan
field sum 0
field sqrsum 0
field min nan
field max nan
statistic Basic.rack[15].eps.queue[3] 	dropsum
field count 0
field mean nan
field stddev nan
field sum 0
field sqrsum 0
field min nan
field max nan
