version 2
run Basic-42-20180510-17:25:50-200
attr configname Basic
attr datetime 20180510-17:25:50
attr experiment Basic
attr inifile omnetpp.ini
attr iterationvars "$0=exponential(0.1 ms), $1=6, $2=4"
attr iterationvarsf exponential(0.1_ms),6,4-
attr measurement "$0=exponential(0.1 ms), $1=6, $2=4"
attr network Networks.Basic
attr processid 200
attr repetition 0
attr replication #0
attr resultdir results
attr runnumber 42
attr seedset 42
param **.frameCapacity 50
param **.packetLength "1024 bytes"
param **.pattern 6
param **.sendIaTime "exponential(0.1 ms)"
param **.tp 4

statistic Basic.rack[0].node[0].app 	throughput
field count 99734
field mean 49867.5
field stddev 28790.870210885
field sum 4973485245
field sqrsum 3.3068537611164e+014
field min 1
field max 99734
statistic Basic.rack[0].node[0].app 	"End-to-End Delay"
field count 99734
field mean 2.9318578646324e-005
field stddev 2.3256780077622e-005
field sum 2.9240591227125
field sqrsum 0.00013967262493581
field min 8.496e-007
field max 0.000277594249
statistic Basic.rack[0].node[0].app 	hops
field count 99734
field mean 5.1698818858163
field stddev 0.68729042988144
field sum 515613
field sqrsum 2712769
field min 4
field max 6
statistic Basic.rack[0].node[1].app 	throughput
field count 99751
field mean 49876
field stddev 28795.777688173
field sum 4975180876
field sqrsum 3.3085450343488e+014
field min 1
field max 99751
statistic Basic.rack[0].node[1].app 	"End-to-End Delay"
field count 99751
field mean 2.9244225866202e-005
field stddev 2.3356308393845e-005
field sum 2.9171407743795
field sqrsum 0.00013972485858285
field min 8.496e-007
field max 0.000378927335
statistic Basic.rack[0].node[1].app 	hops
field count 99751
field mean 5.1693015608866
field stddev 0.68732043170348
field sum 515643
field sqrsum 2712637
field min 4
field max 6
statistic Basic.rack[0].node[2].app 	throughput
field count 99923
field mean 49962
field stddev 28845.429811324
field sum 4992352926
field sqrsum 3.3256891840077e+014
field min 1
field max 99923
statistic Basic.rack[0].node[2].app 	"End-to-End Delay"
field count 99923
field mean 2.9388811231904e-005
field stddev 2.3425639428342e-005
field sum 2.9366181847255
field sqrsum 0.0001411369724283
field min 8.496e-007
field max 0.000320516677
statistic Basic.rack[0].node[2].app 	hops
field count 99923
field mean 5.1665582498524
field stddev 0.68607350482525
field sum 516258
field sqrsum 2714310
field min 4
field max 6
statistic Basic.rack[0].node[3].app 	throughput
field count 100107
field mean 50054
field stddev 28898.54603609
field sum 5010755778
field sqrsum 3.3440948936409e+014
field min 1
field max 100107
statistic Basic.rack[0].node[3].app 	"End-to-End Delay"
field count 100107
field mean 2.9281655800669e-005
field stddev 2.3396952978264e-005
field sum 2.9312987172376
field sqrsum 0.00014063304719912
field min 8.496e-007
field max 0.000300766907
statistic Basic.rack[0].node[3].app 	hops
field count 100107
field mean 5.1647936707723
field stddev 0.68855024552
field sum 517032
field sqrsum 2717824
field min 4
field max 6
statistic Basic.rack[0].node[4].app 	throughput
field count 100149
field mean 50075
field stddev 28910.670391743
field sum 5014961175
field sqrsum 3.3483056946378e+014
field min 1
field max 100149
statistic Basic.rack[0].node[4].app 	"End-to-End Delay"
field count 100149
field mean 2.9453769172818e-005
field stddev 2.3452941391055e-005
field sum 2.9497655288885
field sqrsum 0.00014196716497911
field min 8.496e-007
field max 0.000322582982
statistic Basic.rack[0].node[4].app 	hops
field count 100149
field mean 5.1625577888945
field stddev 0.68687504825604
field sum 517025
field sqrsum 2716421
field min 4
field max 6
statistic Basic.rack[0].node[5].app 	throughput
field count 99575
field mean 49788
field stddev 28744.970864483
field sum 4957640100
field sqrsum 3.291063278517e+014
field min 1
field max 99575
statistic Basic.rack[0].node[5].app 	"End-to-End Delay"
field count 99575
field mean 2.9373293332228e-005
field stddev 2.3316199330291e-005
field sum 2.9248456835566
field sqrsum 0.00014004527250118
field min 8.496e-007
field max 0.000305112718
statistic Basic.rack[0].node[5].app 	hops
field count 99575
field mean 5.1686869194075
field stddev 0.6861935064233
field sum 514672
field sqrsum 2707064
field min 4
field max 6
statistic Basic.rack[0].node[6].app 	throughput
field count 100231
field mean 50116
field stddev 28934.34175278
field sum 5023176796
field sqrsum 3.3565369668552e+014
field min 1
field max 100231
statistic Basic.rack[0].node[6].app 	"End-to-End Delay"
field count 100231
field mean 2.940701236596e-005
field stddev 2.3290605416874e-005
field sum 2.9474942564526
field sqrsum 0.00014104699414571
field min 8.496e-007
field max 0.000289859364
statistic Basic.rack[0].node[6].app 	hops
field count 100231
field mean 5.1667747503267
field stddev 0.68962894381764
field sum 517871
field sqrsum 2723391
field min 4
field max 6
statistic Basic.rack[0].node[7].app 	throughput
field count 99799
field mean 49900
field stddev 28809.634094633
field sum 4979970100
field sqrsum 3.313323506633e+014
field min 1
field max 99799
statistic Basic.rack[0].node[7].app 	"End-to-End Delay"
field count 99799
field mean 2.946839223594e-005
field stddev 2.3552754473087e-005
field sum 2.9409160767545
field sqrsum 0.0001420252368966
field min 8.496e-007
field max 0.000370763466
statistic Basic.rack[0].node[7].app 	hops
field count 99799
field mean 5.1688293469874
field stddev 0.68788063387068
field sum 515844
field sqrsum 2713532
field min 4
field max 6
statistic Basic.rack[0].node[8].app 	throughput
field count 99848
field mean 49924.5
field stddev 28823.779176229
field sum 4984861476
field sqrsum 3.3182062739092e+014
field min 1
field max 99848
statistic Basic.rack[0].node[8].app 	"End-to-End Delay"
field count 99848
field mean 2.9366675756745e-005
field stddev 2.3422098200674e-005
field sum 2.9322038409595
field sqrsum 0.00014088461287567
field min 8.496e-007
field max 0.000381248887
statistic Basic.rack[0].node[8].app 	hops
field count 99848
field mean 5.1653413188046
field stddev 0.6881994172393
field sum 515749
field sqrsum 2711309
field min 4
field max 6
statistic Basic.rack[0].node[9].app 	throughput
field count 99852
field mean 49926.5
field stddev 28824.933876767
field sum 4985260878
field sqrsum 3.3186050788033e+014
field min 1
field max 99852
statistic Basic.rack[0].node[9].app 	"End-to-End Delay"
field count 99852
field mean 2.9412344809393e-005
field stddev 2.3373669594417e-005
field sum 2.9368814539075
field sqrsum 0.00014093201008142
field min 8.496e-007
field max 0.00028567048
statistic Basic.rack[0].node[9].app 	hops
field count 99852
field mean 5.1698313503986
field stddev 0.68660208199781
field sum 516218
field sqrsum 2715832
field min 4
field max 6
statistic Basic.rack[0].eps.queue[0] 	dropsum
field count 0
field mean nan
field stddev nan
field sum 0
field sqrsum 0
field min nan
field max nan
statistic Basic.rack[0].eps.queue[1] 	dropsum
field count 0
field mean nan
field stddev nan
field sum 0
field sqrsum 0
field min nan
field max nan
statistic Basic.rack[0].eps.queue[2] 	dropsum
field count 0
field mean nan
field stddev nan
field sum 0
field sqrsum 0
field min nan
field max nan
statistic Basic.rack[0].eps.queue[3] 	dropsum
field count 0
field mean nan
field stddev nan
field sum 0
field sqrsum 0
field min nan
field max nan
statistic Basic.rack[1].node[0].app 	throughput
field count 100004
field mean 50002.5
field stddev 28868.812497226
field sum 5000450010
field sqrsum 3.3337833535003e+014
field min 1
field max 100004
statistic Basic.rack[1].node[0].app 	"End-to-End Delay"
field count 100004
field mean 2.9268462231085e-005
field stddev 2.2809112324972e-005
field sum 2.9269632969575
field sqrsum 0.00013769483598091
field min 8.496e-007
field max 0.000321255358
statistic Basic.rack[1].node[0].app 	hops
field count 100004
field mean 5.1665833366665
field stddev 0.68746251083503
field sum 516679
field sqrsum 2716727
field min 4
field max 6
statistic Basic.rack[1].node[1].app 	throughput
field count 99490
field mean 49745.5
field stddev 28720.433478043
field sum 4949179795
field sqrsum 3.2826424826296e+014
field min 1
field max 99490
statistic Basic.rack[1].node[1].app 	"End-to-End Delay"
field count 99490
field mean 2.9468098782646e-005
field stddev 2.2835284133579e-005
field sum 2.9317811478854
field sqrsum 0.00013827257556817
field min 8.496e-007
field max 0.000323627498
statistic Basic.rack[1].node[1].app 	hops
field count 99490
field mean 5.1694341139813
field stddev 0.68422276566824
field sum 514307
field sqrsum 2705253
field min 4
field max 6
statistic Basic.rack[1].node[2].app 	throughput
field count 100118
field mean 50059.5
field stddev 28901.72146257
field sum 5011857021
field sqrsum 3.3451973810466e+014
field min 1
field max 100118
statistic Basic.rack[1].node[2].app 	"End-to-End Delay"
field count 100118
field mean 2.9265231060853e-005
field stddev 2.2710090392561e-005
field sum 2.9299764033505
field sqrsum 0.00013738159955079
field min 8.496e-007
field max 0.000274037004
statistic Basic.rack[1].node[2].app 	hops
field count 100118
field mean 5.1662837851335
field stddev 0.6868079647106
field sum 517238
field sqrsum 2719424
field min 4
field max 6
statistic Basic.rack[1].node[3].app 	throughput
field count 100182
field mean 50091.5
field stddev 28920.196671185
field sum 5018266653
field sqrsum 3.3516166597612e+014
field min 1
field max 100182
statistic Basic.rack[1].node[3].app 	"End-to-End Delay"
field count 100182
field mean 2.9310980039773e-005
field stddev 2.2758538171718e-005
field sum 2.9364326023445
field sqrsum 0.00013795857250862
field min 8.496e-007
field max 0.000313994863
statistic Basic.rack[1].node[3].app 	hops
field count 100182
field mean 5.1653989738676
field stddev 0.68709452845832
field sum 517480
field sqrsum 2720286
field min 4
field max 6
statistic Basic.rack[1].node[4].app 	throughput
field count 99735
field mean 49868
field stddev 28791.158886019
field sum 4973584980
field sqrsum 3.3069532318186e+014
field min 1
field max 99735
statistic Basic.rack[1].node[4].app 	"End-to-End Delay"
field count 99735
field mean 2.9326222544317e-005
field stddev 2.2770901618383e-005
field sum 2.9248508054575
field sqrsum 0.00013748829696768
field min 8.496e-007
field max 0.000295070352
statistic Basic.rack[1].node[4].app 	hops
field count 99735
field mean 5.1685867549005
field stddev 0.68686882385867
field sum 515489
field sqrsum 2711403
field min 4
field max 6
statistic Basic.rack[1].node[5].app 	throughput
field count 99917
field mean 49959
field stddev 28843.697760516
field sum 4991753403
field sqrsum 3.3250901376284e+014
field min 1
field max 99917
statistic Basic.rack[1].node[5].app 	"End-to-End Delay"
field count 99917
field mean 2.9345682224391e-005
field stddev 2.2955546446459e-005
field sum 2.9321325308145
field sqrsum 0.00013869687635717
field min 8.496e-007
field max 0.000339529881
statistic Basic.rack[1].node[5].app 	hops
field count 99917
field mean 5.1668885174695
field stddev 0.68757432821164
field sum 516260
field sqrsum 2714694
field min 4
field max 6
statistic Basic.rack[1].node[6].app 	throughput
field count 99861
field mean 49931
field stddev 28827.531952979
field sum 4986159591
field sqrsum 3.3195025066443e+014
field min 1
field max 99861
statistic Basic.rack[1].node[6].app 	"End-to-End Delay"
field count 99861
field mean 2.9297920817982e-005
field stddev 2.2867379058404e-005
field sum 2.9257196708045
field sqrsum 0.00013793599736742
field min 8.496e-007
field max 0.000334277577
statistic Basic.rack[1].node[6].app 	hops
field count 99861
field mean 5.1715484523488
field stddev 0.68597435795795
field sum 516436
field sqrsum 2717764
field min 4
field max 6
statistic Basic.rack[1].node[7].app 	throughput
field count 99928
field mean 49964.5
field stddev 28846.873186997
field sum 4992852556
field sqrsum 3.3261884442816e+014
field min 1
field max 99928
statistic Basic.rack[1].node[7].app 	"End-to-End Delay"
field count 99928
field mean 2.9226165043756e-005
field stddev 2.2729108384196e-005
field sum 2.9205122204925
field sqrsum 0.00013697889625961
field min 8.496e-007
field max 0.000301669548
statistic Basic.rack[1].node[7].app 	hops
field count 99928
field mean 5.1684913137459
field stddev 0.68677902797835
field sum 516477
field sqrsum 2716539
field min 4
field max 6
statistic Basic.rack[1].node[8].app 	throughput
field count 99807
field mean 49904
field stddev 28811.94349571
field sum 4980768528
field sqrsum 3.3141203657224e+014
field min 1
field max 99807
statistic Basic.rack[1].node[8].app 	"End-to-End Delay"
field count 99807
field mean 2.932362248466e-005
field stddev 2.2740505119269e-005
field sum 2.9267027893265
field sqrsum 0.00013743426169579
field min 8.496e-007
field max 0.000292170698
statistic Basic.rack[1].node[8].app 	hops
field count 99807
field mean 5.1700882703618
field stddev 0.68607504781005
field sum 516011
field sqrsum 2714801
field min 4
field max 6
statistic Basic.rack[1].node[9].app 	throughput
field count 100018
field mean 50009.5
field stddev 28872.853949111
field sum 5001850171
field sqrsum 3.3351836755211e+014
field min 1
field max 100018
statistic Basic.rack[1].node[9].app 	"End-to-End Delay"
field count 100018
field mean 2.9283429145448e-005
field stddev 2.2874378381682e-005
field sum 2.9288700162694
field sqrsum 0.00013809997126466
field min 8.496e-007
field max 0.000305739686
statistic Basic.rack[1].node[9].app 	hops
field count 100018
field mean 5.1647703413386
field stddev 0.68797193680543
field sum 516570
field sqrsum 2715304
field min 4
field max 6
statistic Basic.rack[1].eps.queue[0] 	dropsum
field count 0
field mean nan
field stddev nan
field sum 0
field sqrsum 0
field min nan
field max nan
statistic Basic.rack[1].eps.queue[1] 	dropsum
field count 0
field mean nan
field stddev nan
field sum 0
field sqrsum 0
field min nan
field max nan
statistic Basic.rack[1].eps.queue[2] 	dropsum
field count 0
field mean nan
field stddev nan
field sum 0
field sqrsum 0
field min nan
field max nan
statistic Basic.rack[1].eps.queue[3] 	dropsum
field count 0
field mean nan
field stddev nan
field sum 0
field sqrsum 0
field min nan
field max nan
statistic Basic.rack[2].node[0].app 	throughput
field count 99910
field mean 49955.5
field stddev 28841.677034574
field sum 4991054005
field sqrsum 3.3243913411104e+014
field min 1
field max 99910
statistic Basic.rack[2].node[0].app 	"End-to-End Delay"
field count 99910
field mean 2.8912796548568e-005
field stddev 2.1568341457019e-005
field sum 2.8886775031674
field sqrsum 0.00012999674766902
field min 8.496e-007
field max 0.000268463083
statistic Basic.rack[2].node[0].app 	hops
field count 99910
field mean 4.9999299369432
field stddev 0.91235271013528
field sum 499543
field sqrsum 2580843
field min 3
field max 6
statistic Basic.rack[2].node[1].app 	throughput
field count 100070
field mean 50035.5
field stddev 28887.86505611
field sum 5007052485
field sqrsum 3.340388304668e+014
field min 1
field max 100070
statistic Basic.rack[2].node[1].app 	"End-to-End Delay"
field count 100070
field mean 2.8888463087343e-005
field stddev 2.1386883604213e-005
field sum 2.8908685011504
field sqrsum 0.00012928418753239
field min 8.496e-007
field max 0.000286401814
statistic Basic.rack[2].node[1].app 	hops
field count 100070
field mean 5.0008893774358
field stddev 0.91362643148457
field sum 500439
field sqrsum 2586169
field min 3
field max 6
statistic Basic.rack[2].node[2].app 	throughput
field count 100322
field mean 50161.5
field stddev 28960.611190028
field sum 5032302003
field sqrsum 3.3656874513064e+014
field min 1
field max 100322
statistic Basic.rack[2].node[2].app 	"End-to-End Delay"
field count 100322
field mean 2.8904306531444e-005
field stddev 2.153104392397e-005
field sum 2.8997378398475
field sqrsum 0.00013032230768801
field min 8.496e-007
field max 0.000274172923
statistic Basic.rack[2].node[2].app 	hops
field count 100322
field mean 4.9989832738582
field stddev 0.91176228062712
field sum 501508
field sqrsum 2590428
field min 3
field max 6
statistic Basic.rack[2].node[3].app 	throughput
field count 100400
field mean 50200.5
field stddev 28983.127850527
field sum 5040130200
field sqrsum 3.373543947634e+014
field min 1
field max 100400
statistic Basic.rack[2].node[3].app 	"End-to-End Delay"
field count 100400
field mean 2.893922489602e-005
field stddev 2.1577185220349e-005
field sum 2.9054981795604
field sqrsum 0.00013082612185049
field min 8.496e-007
field max 0.000274330895
statistic Basic.rack[2].node[3].app 	hops
field count 100400
field mean 5.0018525896414
field stddev 0.91031322095414
field sum 502186
field sqrsum 2595058
field min 3
field max 6
statistic Basic.rack[2].node[4].app 	throughput
field count 100142
field mean 50071.5
field stddev 28908.649665801
field sum 5014260153
field sqrsum 3.3476036491454e+014
field min 1
field max 100142
statistic Basic.rack[2].node[4].app 	"End-to-End Delay"
field count 100142
field mean 2.8888828591654e-005
field stddev 2.1603331896469e-005
field sum 2.8929850728254
field sqrsum 0.00013031115004678
field min 8.496e-007
field max 0.000290334551
statistic Basic.rack[2].node[4].app 	hops
field count 100142
field mean 5.002356653552
field stddev 0.91292896158478
field sum 500946
field sqrsum 2589372
field min 3
field max 6
statistic Basic.rack[2].node[5].app 	throughput
field count 99002
field mean 49501.5
field stddev 28579.560012358
field sum 4900747503
field sqrsum 3.234575031105e+014
field min 1
field max 99002
statistic Basic.rack[2].node[5].app 	"End-to-End Delay"
field count 99002
field mean 2.8936832117396e-005
field stddev 2.1608284658825e-005
field sum 2.8648042532864
field sqrsum 0.0001291237052683
field min 8.496e-007
field max 0.000306436071
statistic Basic.rack[2].node[5].app 	hops
field count 99002
field mean 4.9993030443829
field stddev 0.91350207147337
field sum 494941
field sqrsum 2556975
field min 3
field max 6
statistic Basic.rack[2].node[6].app 	throughput
field count 100124
field mean 50062.5
field stddev 28903.453513378
field sum 5012457750
field sqrsum 3.3457988399325e+014
field min 1
field max 100124
statistic Basic.rack[2].node[6].app 	"End-to-End Delay"
field count 100124
field mean 2.8903178676595e-005
field stddev 2.1430916320532e-005
field sum 2.8939018618154
field sqrsum 0.00012962787197179
field min 8.496e-007
field max 0.000278770697
statistic Basic.rack[2].node[6].app 	hops
field count 100124
field mean 4.9943869601694
field stddev 0.91357641706443
field sum 500058
field sqrsum 2581048
field min 3
field max 6
statistic Basic.rack[2].node[7].app 	throughput
field count 100081
field mean 50041
field stddev 28891.04048259
field sum 5008153321
field sqrsum 3.3414899773044e+014
field min 1
field max 100081
statistic Basic.rack[2].node[7].app 	"End-to-End Delay"
field count 100081
field mean 2.8720346640455e-005
field stddev 2.1296914544693e-005
field sum 2.8743610121234
field sqrsum 0.00012794478623592
field min 8.496e-007
field max 0.000300065895
statistic Basic.rack[2].node[7].app 	hops
field count 100081
field mean 5.0002398057573
field stddev 0.91129335451556
field sum 500429
field sqrsum 2585377
field min 3
field max 6
statistic Basic.rack[2].node[8].app 	throughput
field count 100948
field mean 50474.5
field stddev 29141.321824287
field sum 5095299826
field sqrsum 3.4290858298997e+014
field min 1
field max 100948
statistic Basic.rack[2].node[8].app 	"End-to-End Delay"
field count 100948
field mean 2.9010065281664e-005
field stddev 2.1523723919752e-005
field sum 2.9285080700534
field sqrsum 0.00013172199677223
field min 8.496e-007
field max 0.000297021165
statistic Basic.rack[2].node[8].app 	hops
field count 100948
field mean 5.0008816420335
field stddev 0.91694436188946
field sum 504829
field sqrsum 2609465
field min 3
field max 6
statistic Basic.rack[2].node[9].app 	throughput
field count 100147
field mean 50074
field stddev 28910.093041474
field sum 5014760878
field sqrsum 3.3481051001967e+014
field min 1
field max 100147
statistic Basic.rack[2].node[9].app 	"End-to-End Delay"
field count 100147
field mean 2.8826235262648e-005
field stddev 2.1478173227606e-005
field sum 2.8868609828484
field sqrsum 0.00012941587792273
field min 8.496e-007
field max 0.000255444535
statistic Basic.rack[2].node[9].app 	hops
field count 100147
field mean 4.9957662236512
field stddev 0.9124617649734
field sum 500311
field sqrsum 2582817
field min 3
field max 6
statistic Basic.rack[2].eps.queue[0] 	dropsum
field count 0
field mean nan
field stddev nan
field sum 0
field sqrsum 0
field min nan
field max nan
statistic Basic.rack[2].eps.queue[1] 	dropsum
field count 0
field mean nan
field stddev nan
field sum 0
field sqrsum 0
field min nan
field max nan
statistic Basic.rack[2].eps.queue[2] 	dropsum
field count 0
field mean nan
field stddev nan
field sum 0
field sqrsum 0
field min nan
field max nan
statistic Basic.rack[2].eps.queue[3] 	dropsum
field count 0
field mean nan
field stddev nan
field sum 0
field sqrsum 0
field min nan
field max nan
statistic Basic.rack[3].node[0].app 	throughput
field count 100253
field mean 50127
field stddev 28940.692605741
field sum 5025382131
field sqrsum 3.3587476498014e+014
field min 1
field max 100253
statistic Basic.rack[3].node[0].app 	"End-to-End Delay"
field count 100253
field mean 2.5361370106504e-005
field stddev 1.8411633082111e-005
field sum 2.5425534372874
field sqrsum 9.8466887048289e-005
field min 8.496e-007
field max 0.000184320714
statistic Basic.rack[3].node[0].app 	hops
field count 100253
field mean 5.0017954574925
field stddev 0.91055335784591
field sum 501445
field sqrsum 2591245
field min 3
field max 6
statistic Basic.rack[3].node[1].app 	throughput
field count 100133
field mean 50067
field stddev 28906.051589589
field sum 5013358911
field sqrsum 3.3467011634308e+014
field min 1
field max 100133
statistic Basic.rack[3].node[1].app 	"End-to-End Delay"
field count 100133
field mean 2.537858128838e-005
field stddev 1.8420380247904e-005
field sum 2.5412334801494
field sqrsum 9.8468730270378e-005
field min 8.496e-007
field max 0.000174246619
statistic Basic.rack[3].node[1].app 	hops
field count 100133
field mean 5.0032656566766
field stddev 0.91013510244823
field sum 500992
field sqrsum 2589540
field min 3
field max 6
statistic Basic.rack[3].node[2].app 	throughput
field count 99950
field mean 49975.5
field stddev 28853.224039958
field sum 4995051225
field sqrsum 3.3283857830958e+014
field min 1
field max 99950
statistic Basic.rack[3].node[2].app 	"End-to-End Delay"
field count 99950
field mean 2.548173501311e-005
field stddev 1.8556242458104e-005
field sum 2.5468994145604
field sqrsum 9.9315268362425e-005
field min 8.496e-007
field max 0.000189565642
statistic Basic.rack[3].node[2].app 	hops
field count 99950
field mean 4.9976788394197
field stddev 0.91516214465004
field sum 499518
field sqrsum 2580140
field min 3
field max 6
statistic Basic.rack[3].node[3].app 	throughput
field count 100014
field mean 50007.5
field stddev 28871.699248572
field sum 5001450105
field sqrsum 3.3347835435102e+014
field min 1
field max 100014
statistic Basic.rack[3].node[3].app 	"End-to-End Delay"
field count 100014
field mean 2.543239459692e-005
field stddev 1.8576626694342e-005
field sum 2.5435955132164
field sqrsum 9.9203316904938e-005
field min 8.496e-007
field max 0.000183481587
statistic Basic.rack[3].node[3].app 	hops
field count 100014
field mean 5.0017397564341
field stddev 0.91168466086915
field sum 500244
field sqrsum 2585218
field min 3
field max 6
statistic Basic.rack[3].node[4].app 	throughput
field count 100201
field mean 50101
field stddev 28925.681498742
field sum 5020170301
field sqrsum 3.353523962771e+014
field min 1
field max 100201
statistic Basic.rack[3].node[4].app 	"End-to-End Delay"
field count 100201
field mean 2.5494430008667e-005
field stddev 1.8612643693493e-005
field sum 2.5545673812984
field sqrsum 9.9839575932081e-005
field min 8.496e-007
field max 0.000198061694
statistic Basic.rack[3].node[4].app 	hops
field count 100201
field mean 4.9986127882955
field stddev 0.91048892996705
field sum 500866
field sqrsum 2586700
field min 3
field max 6
statistic Basic.rack[3].node[5].app 	throughput
field count 100057
field mean 50029
field stddev 28884.11227936
field sum 5005751653
field sqrsum 3.3390866401336e+014
field min 1
field max 100057
statistic Basic.rack[3].node[5].app 	"End-to-End Delay"
field count 100057
field mean 2.5487401720583e-005
field stddev 1.8501965968674e-005
field sum 2.5501929539564
field sqrsum 9.924923682679e-005
field min 8.496e-007
field max 0.000188831989
statistic Basic.rack[3].node[5].app 	hops
field count 100057
field mean 4.9993403759857
field stddev 0.91285974246807
field sum 500219
field sqrsum 2584143
field min 3
field max 6
statistic Basic.rack[3].node[6].app 	throughput
field count 100314
field mean 50157.5
field stddev 28958.301788952
field sum 5031499455
field sqrsum 3.3648823471906e+014
field min 1
field max 100314
statistic Basic.rack[3].node[6].app 	"End-to-End Delay"
field count 100314
field mean 2.5432341569456e-005
field stddev 1.8416386517634e-005
field sum 2.5512199121984
field sqrsum 9.8905983573026e-005
field min 8.496e-007
field max 0.000192909515
statistic Basic.rack[3].node[6].app 	hops
field count 100314
field mean 4.9993520346113
field stddev 0.91025062368723
field sum 501505
field sqrsum 2590315
field min 3
field max 6
statistic Basic.rack[3].node[7].app 	throughput
field count 100503
field mean 50252
field stddev 29012.861389391
field sum 5050476756
field sqrsum 3.3839372709776e+014
field min 1
field max 100503
statistic Basic.rack[3].node[7].app 	"End-to-End Delay"
field count 100503
field mean 2.5419243517401e-005
field stddev 1.8399274410819e-005
field sum 2.5547102312294
field sqrsum 9.8962075084496e-005
field min 8.496e-007
field max 0.000182796411
statistic Basic.rack[3].node[7].app 	hops
field count 100503
field mean 5.0014626429062
field stddev 0.91515221790346
field sum 502662
field sqrsum 2598216
field min 3
field max 6
statistic Basic.rack[3].node[8].app 	throughput
field count 100145
field mean 50073
field stddev 28909.515691205
field sum 5014560585
field sqrsum 3.3479045137674e+014
field min 1
field max 100145
statistic Basic.rack[3].node[8].app 	"End-to-End Delay"
field count 100145
field mean 2.5451570923615e-005
field stddev 1.8514817287787e-005
field sum 2.5488475701454
field sqrsum 9.9201383603178e-005
field min 8.496e-007
field max 0.00019633875
statistic Basic.rack[3].node[8].app 	hops
field count 100145
field mean 4.9973438514154
field stddev 0.91025260698363
field sum 500459
field sqrsum 2583941
field min 3
field max 6
statistic Basic.rack[3].node[9].app 	throughput
field count 100004
field mean 50002.5
field stddev 28868.812497226
field sum 5000450010
field sqrsum 3.3337833535003e+014
field min 1
field max 100004
statistic Basic.rack[3].node[9].app 	"End-to-End Delay"
field count 100004
field mean 2.5455125008573e-005
field stddev 1.8479542225429e-005
field sum 2.5456143213574
field sqrsum 9.8949303340349e-005
field min 8.496e-007
field max 0.000176870006
statistic Basic.rack[3].node[9].app 	hops
field count 100004
field mean 5.0009499620015
field stddev 0.91447471786584
field sum 500115
field sqrsum 2584679
field min 3
field max 6
statistic Basic.rack[3].eps.queue[0] 	dropsum
field count 0
field mean nan
field stddev nan
field sum 0
field sqrsum 0
field min nan
field max nan
statistic Basic.rack[3].eps.queue[1] 	dropsum
field count 0
field mean nan
field stddev nan
field sum 0
field sqrsum 0
field min nan
field max nan
statistic Basic.rack[3].eps.queue[2] 	dropsum
field count 0
field mean nan
field stddev nan
field sum 0
field sqrsum 0
field min nan
field max nan
statistic Basic.rack[3].eps.queue[3] 	dropsum
field count 0
field mean nan
field stddev nan
field sum 0
field sqrsum 0
field min nan
field max nan
statistic Basic.rack[4].node[0].app 	throughput
field count 100071
field mean 50036
field stddev 28888.153731244
field sum 5007152556
field sqrsum 3.3404884467184e+014
field min 1
field max 100071
statistic Basic.rack[4].node[0].app 	"End-to-End Delay"
field count 100071
field mean 2.8521540507823e-005
field stddev 2.2295324741573e-005
field sum 2.8541790801584
field sqrsum 0.00013114853048991
field min 8.496e-007
field max 0.000324013294
statistic Basic.rack[4].node[0].app 	hops
field count 100071
field mean 5.1646930679218
field stddev 0.68741265638894
field sum 516836
field sqrsum 2716586
field min 4
field max 6
statistic Basic.rack[4].node[1].app 	throughput
field count 100095
field mean 50048
field stddev 28895.081934475
field sum 5009554560
field sqrsum 3.3428924564032e+014
field min 1
field max 100095
statistic Basic.rack[4].node[1].app 	"End-to-End Delay"
field count 100095
field mean 2.8429409845031e-005
field stddev 2.2366069865287e-005
field sum 2.8456417784384
field sqrsum 0.00013097104717489
field min 8.496e-007
field max 0.000311299767
statistic Basic.rack[4].node[1].app 	hops
field count 100095
field mean 5.1684599630351
field stddev 0.68641924502149
field sum 517337
field sqrsum 2720997
field min 4
field max 6
statistic Basic.rack[4].node[2].app 	throughput
field count 99683
field mean 49842
field stddev 28776.14777902
field sum 4968400086
field sqrsum 3.3017833998185e+014
field min 1
field max 99683
statistic Basic.rack[4].node[2].app 	"End-to-End Delay"
field count 99683
field mean 2.8514966232732e-005
field stddev 2.2172715613805e-005
field sum 2.8424573789774
field sqrsum 0.00013005916982556
field min 8.496e-007
field max 0.000332389123
statistic Basic.rack[4].node[2].app 	hops
field count 99683
field mean 5.1671398332715
field stddev 0.68806128686498
field sum 515076
field sqrsum 2708662
field min 4
field max 6
statistic Basic.rack[4].node[3].app 	throughput
field count 100182
field mean 50091.5
field stddev 28920.196671185
field sum 5018266653
field sqrsum 3.3516166597612e+014
field min 1
field max 100182
statistic Basic.rack[4].node[3].app 	"End-to-End Delay"
field count 100182
field mean 2.8639877821319e-005
field stddev 2.2430659891125e-005
field sum 2.8692002398954
field sqrsum 0.00013257806197571
field min 8.496e-007
field max 0.000372172436
statistic Basic.rack[4].node[3].app 	hops
field count 100182
field mean 5.1678545048013
field stddev 0.68687672048474
field sum 517726
field sqrsum 2722798
field min 4
field max 6
statistic Basic.rack[4].node[4].app 	throughput
field count 100569
field mean 50285
field stddev 29031.913948274
field sum 5057112165
field sqrsum 3.3906082791864e+014
field min 1
field max 100569
statistic Basic.rack[4].node[4].app 	"End-to-End Delay"
field count 100569
field mean 2.845946224498e-005
field stddev 2.2201847800274e-005
field sum 2.8621396585154
field sqrsum 0.00013102713984802
field min 8.496e-007
field max 0.000313649118
statistic Basic.rack[4].node[4].app 	hops
field count 100569
field mean 5.1688989648898
field stddev 0.68672569360069
field sum 519831
field sqrsum 2734381
field min 4
field max 6
statistic Basic.rack[4].node[5].app 	throughput
field count 100146
field mean 50073.5
field stddev 28909.804366339
field sum 5014660731
field sqrsum 3.3480048059806e+014
field min 1
field max 100146
statistic Basic.rack[4].node[5].app 	"End-to-End Delay"
field count 100146
field mean 2.8544848085789e-005
field stddev 2.2103682558977e-005
field sum 2.8586523563994
field sqrsum 0.00013052791856379
field min 8.496e-007
field max 0.000281707036
statistic Basic.rack[4].node[5].app 	hops
field count 100146
field mean 5.1612945100154
field stddev 0.68740885064981
field sum 516883
field sqrsum 2715107
field min 4
field max 6
statistic Basic.rack[4].node[6].app 	throughput
field count 99648
field mean 49824.5
field stddev 28766.044149309
field sum 4964911776
field sqrsum 3.2983067407382e+014
field min 1
field max 99648
statistic Basic.rack[4].node[6].app 	"End-to-End Delay"
field count 99648
field mean 2.8396742715242e-005
field stddev 2.2257582018328e-005
field sum 2.8296786180884
field sqrsum 0.00012971877523001
field min 8.496e-007
field max 0.000339054363
statistic Basic.rack[4].node[6].app 	hops
field count 99648
field mean 5.1681619299936
field stddev 0.68650912299115
field sum 514997
field sqrsum 2708551
field min 4
field max 6
statistic Basic.rack[4].node[7].app 	throughput
field count 99716
field mean 49858.5
field stddev 28785.674058462
field sum 4971690186
field sqrsum 3.3050636295485e+014
field min 1
field max 99716
statistic Basic.rack[4].node[7].app 	"End-to-End Delay"
field count 99716
field mean 2.8584666460723e-005
field stddev 2.2419808195978e-005
field sum 2.8503486007974
field sqrsum 0.00013159778938216
field min 8.496e-007
field max 0.000325112519
statistic Basic.rack[4].node[7].app 	hops
field count 99716
field mean 5.1698323237996
field stddev 0.68599568343098
field sum 515515
field sqrsum 2712051
field min 4
field max 6
statistic Basic.rack[4].node[8].app 	throughput
field count 100205
field mean 50103
field stddev 28926.83619928
field sum 5020571115
field sqrsum 3.3539255924276e+014
field min 1
field max 100205
statistic Basic.rack[4].node[8].app 	"End-to-End Delay"
field count 100205
field mean 2.8448526716695e-005
field stddev 2.2389001800893e-005
field sum 2.8506846196464
field sqrsum 0.00013132677627686
field min 8.496e-007
field max 0.000313153197
statistic Basic.rack[4].node[8].app 	hops
field count 100205
field mean 5.1670275934335
field stddev 0.68502358118623
field sum 517762
field sqrsum 2722312
field min 4
field max 6
statistic Basic.rack[4].node[9].app 	throughput
field count 99422
field mean 49711.5
field stddev 28700.80356889
field sum 4942416753
field sqrsum 3.275916197501e+014
field min 1
field max 99422
statistic Basic.rack[4].node[9].app 	"End-to-End Delay"
field count 99422
field mean 2.8558031333612e-005
field stddev 2.2222598375542e-005
field sum 2.8392965912504
field sqrsum 0.00013018317326872
field min 8.496e-007
field max 0.000269095857
statistic Basic.rack[4].node[9].app 	hops
field count 99422
field mean 5.1640180241798
field stddev 0.68589173464761
field sum 513417
field sqrsum 2698067
field min 4
field max 6
statistic Basic.rack[4].eps.queue[0] 	dropsum
field count 0
field mean nan
field stddev nan
field sum 0
field sqrsum 0
field min nan
field max nan
statistic Basic.rack[4].eps.queue[1] 	dropsum
field count 0
field mean nan
field stddev nan
field sum 0
field sqrsum 0
field min nan
field max nan
statistic Basic.rack[4].eps.queue[2] 	dropsum
field count 0
field mean nan
field stddev nan
field sum 0
field sqrsum 0
field min nan
field max nan
statistic Basic.rack[4].eps.queue[3] 	dropsum
field count 0
field mean nan
field stddev nan
field sum 0
field sqrsum 0
field min nan
field max nan
statistic Basic.rack[5].node[0].app 	throughput
field count 100016
field mean 50008.5
field stddev 28872.276598841
field sum 5001650136
field sqrsum 3.334983605515e+014
field min 1
field max 100016
statistic Basic.rack[5].node[0].app 	"End-to-End Delay"
field count 100016
field mean 3.0476982013134e-005
field stddev 2.6501183183885e-005
field sum 3.0481858330256
field sqrsum 0.00016314131051104
field min 8.496e-007
field max 0.000437998441
statistic Basic.rack[5].node[0].app 	hops
field count 100016
field mean 5.1635638297872
field stddev 0.6870820772062
field sum 516439
field sqrsum 2713881
field min 4
field max 6
statistic Basic.rack[5].node[1].app 	throughput
field count 99972
field mean 49986.5
field stddev 28859.574892919
field sum 4997250378
field sqrsum 3.3305840894307e+014
field min 1
field max 99972
statistic Basic.rack[5].node[1].app 	"End-to-End Delay"
field count 99972
field mean 3.0366490226639e-005
field stddev 2.6257474373601e-005
field sum 3.0357987609376
field sqrsum 0.00016111205525823
field min 8.496e-007
field max 0.000302526668
statistic Basic.rack[5].node[1].app 	hops
field count 99972
field mean 5.1665166246549
field stddev 0.68570134280884
field sum 516507
field sqrsum 2715547
field min 4
field max 6
statistic Basic.rack[5].node[2].app 	throughput
field count 100559
field mean 50280
field stddev 29029.027196928
field sum 5056106520
field sqrsum 3.3895969573196e+014
field min 1
field max 100559
statistic Basic.rack[5].node[2].app 	"End-to-End Delay"
field count 100559
field mean 3.036241464162e-005
field stddev 2.6432394070663e-005
field sum 3.0532140539466
field sqrsum 0.00016295995539885
field min 8.496e-007
field max 0.000332616437
statistic Basic.rack[5].node[2].app 	hops
field count 100559
field mean 5.1675036545709
field stddev 0.68740742849935
field sum 519639
field sqrsum 2732753
field min 4
field max 6
statistic Basic.rack[5].node[3].app 	throughput
field count 100002
field mean 50001.5
field stddev 28868.235146957
field sum 5000250003
field sqrsum 3.3335833395e+014
field min 1
field max 100002
statistic Basic.rack[5].node[3].app 	"End-to-End Delay"
field count 100002
field mean 3.0510471893898e-005
field stddev 2.6454088539523e-005
field sum 3.0511082103336
field sqrsum 0.00016307333116111
field min 8.496e-007
field max 0.000342872199
statistic Basic.rack[5].node[3].app 	hops
field count 100002
field mean 5.1679966400672
field stddev 0.6874240604971
field sum 516810
field sqrsum 2718128
field min 4
field max 6
statistic Basic.rack[5].node[4].app 	throughput
field count 100306
field mean 50153.5
field stddev 28955.992387875
field sum 5030696971
field sqrsum 3.3640773714774e+014
field min 1
field max 100306
statistic Basic.rack[5].node[4].app 	"End-to-End Delay"
field count 100306
field mean 3.0194093786669e-005
field stddev 2.6156044327468e-005
field sum 3.0286487713656
field sqrsum 0.00016006983282527
field min 8.496e-007
field max 0.000319544993
statistic Basic.rack[5].node[4].app 	hops
field count 100306
field mean 5.1668992881782
field stddev 0.68779832598484
field sum 518271
field sqrsum 2725305
field min 4
field max 6
statistic Basic.rack[5].node[5].app 	throughput
field count 100469
field mean 50235
field stddev 29003.046434814
field sum 5047060215
field sqrsum 3.380504108473e+014
field min 1
field max 100469
statistic Basic.rack[5].node[5].app 	"End-to-End Delay"
field count 100469
field mean 3.0454881619102e-005
field stddev 2.6324143216041e-005
field sum 3.0597715013896
field sqrsum 0.0001628053359837
field min 8.496e-007
field max 0.000328299226
statistic Basic.rack[5].node[5].app 	hops
field count 100469
field mean 5.1689277289512
field stddev 0.68693608284254
field sum 519317
field sqrsum 2731721
field min 4
field max 6
statistic Basic.rack[5].node[6].app 	throughput
field count 99534
field mean 49767.5
field stddev 28733.135183965
field sum 4953558345
field sqrsum 3.2869996872694e+014
field min 1
field max 99534
statistic Basic.rack[5].node[6].app 	"End-to-End Delay"
field count 99534
field mean 3.0497653980133e-005
field stddev 2.65467290919e-005
field sum 3.0355534912586
field sqrsum 0.00016272103420096
field min 8.496e-007
field max 0.000384603486
statistic Basic.rack[5].node[6].app 	hops
field count 99534
field mean 5.1692687925734
field stddev 0.68669039815616
field sum 514518
field sqrsum 2706616
field min 4
field max 6
statistic Basic.rack[5].node[7].app 	throughput
field count 99783
field mean 49892
field stddev 28805.01529248
field sum 4978373436
field sqrsum 3.311730171674e+014
field min 1
field max 99783
statistic Basic.rack[5].node[7].app 	"End-to-End Delay"
field count 99783
field mean 3.0410782390513e-005
field stddev 2.6535315392982e-005
field sum 3.0344790992726
field sqrsum 0.00016253968105111
field min 8.496e-007
field max 0.000458279829
statistic Basic.rack[5].node[7].app 	hops
field count 99783
field mean 5.1666315905515
field stddev 0.68516243411489
field sum 515542
field sqrsum 2710458
field min 4
field max 6
statistic Basic.rack[5].node[8].app 	throughput
field count 100740
field mean 50370.5
field stddev 29081.277396291
field sum 5074324170
field sqrsum 3.4079330269859e+014
field min 1
field max 100740
statistic Basic.rack[5].node[8].app 	"End-to-End Delay"
field count 100740
field mean 3.0486654368241e-005
field stddev 2.6451898480137e-005
field sum 3.0712255610566
field sqrsum 0.00016411876595482
field min 8.496e-007
field max 0.000328790469
statistic Basic.rack[5].node[8].app 	hops
field count 100740
field mean 5.1672920389121
field stddev 0.6877938329518
field sum 520553
field sqrsum 2737505
field min 4
field max 6
statistic Basic.rack[5].node[9].app 	throughput
field count 99745
field mean 49873
field stddev 28794.045637365
field sum 4974582385
field sqrsum 3.3079480485534e+014
field min 1
field max 99745
statistic Basic.rack[5].node[9].app 	"End-to-End Delay"
field count 99745
field mean 3.0437210395544e-005
field stddev 2.6331446615259e-005
field sum 3.0359595509036
field sqrsum 0.00016156315134774
field min 8.496e-007
field max 0.000316534605
statistic Basic.rack[5].node[9].app 	hops
field count 99745
field mean 5.1698731766003
field stddev 0.68720130805288
field sum 515669
field sqrsum 2713047
field min 4
field max 6
statistic Basic.rack[5].eps.queue[0] 	dropsum
field count 0
field mean nan
field stddev nan
field sum 0
field sqrsum 0
field min nan
field max nan
statistic Basic.rack[5].eps.queue[1] 	dropsum
field count 0
field mean nan
field stddev nan
field sum 0
field sqrsum 0
field min nan
field max nan
statistic Basic.rack[5].eps.queue[2] 	dropsum
field count 0
field mean nan
field stddev nan
field sum 0
field sqrsum 0
field min nan
field max nan
statistic Basic.rack[5].eps.queue[3] 	dropsum
field count 0
field mean nan
field stddev nan
field sum 0
field sqrsum 0
field min nan
field max nan
statistic Basic.rack[6].node[0].app 	throughput
field count 100246
field mean 50123.5
field stddev 28938.671879799
field sum 5024680381
field sqrsum 3.3580441454261e+014
field min 1
field max 100246
statistic Basic.rack[6].node[0].app 	"End-to-End Delay"
field count 100246
field mean 3.6110243052968e-005
field stddev 3.4574064861604e-005
field sum 3.6199074250878
field sqrsum 0.00025054519771506
field min 8.496e-007
field max 0.000383504675
statistic Basic.rack[6].node[0].app 	hops
field count 100246
field mean 4.999700736189
field stddev 0.91160512375797
field sum 501200
field sqrsum 2589156
field min 3
field max 6
statistic Basic.rack[6].node[1].app 	throughput
field count 99945
field mean 49973
field stddev 28851.780664285
field sum 4994551485
field sqrsum 3.3278863029604e+014
field min 1
field max 99945
statistic Basic.rack[6].node[1].app 	"End-to-End Delay"
field count 99945
field mean 3.6040467071937e-005
field stddev 3.4478547888919e-005
field sum 3.6020644815048
field sqrsum 0.00024863054165471
field min 8.496e-007
field max 0.00035678786
statistic Basic.rack[6].node[1].app 	hops
field count 99945
field mean 5.0044324378408
field stddev 0.91096382098683
field sum 500168
field sqrsum 2585996
field min 3
field max 6
statistic Basic.rack[6].node[2].app 	throughput
field count 99866
field mean 49933.5
field stddev 28828.975328652
field sum 4986658911
field sqrsum 3.3200011475692e+014
field min 1
field max 99866
statistic Basic.rack[6].node[2].app 	"End-to-End Delay"
field count 99866
field mean 3.6158571649088e-005
field stddev 3.4400184993813e-005
field sum 3.6110119163078
field sqrsum 0.00024874655054415
field min 8.496e-007
field max 0.000440121854
statistic Basic.rack[6].node[2].app 	hops
field count 99866
field mean 4.9998297718943
field stddev 0.91409955768672
field sum 499313
field sqrsum 2579925
field min 3
field max 6
statistic Basic.rack[6].node[3].app 	throughput
field count 99833
field mean 49917
field stddev 28819.44904921
field sum 4983363861
field sqrsum 3.3167110401143e+014
field min 1
field max 99833
statistic Basic.rack[6].node[3].app 	"End-to-End Delay"
field count 99833
field mean 3.5923536068622e-005
field stddev 3.4395958668028e-005
field sum 3.5863543763388
field sqrsum 0.00024694397029113
field min 8.496e-007
field max 0.000431264074
statistic Basic.rack[6].node[3].app 	hops
field count 99833
field mean 5.0004106858454
field stddev 0.91510474354622
field sum 499206
field sqrsum 2579836
field min 3
field max 6
statistic Basic.rack[6].node[4].app 	throughput
field count 99985
field mean 49993
field stddev 28863.327669669
field sum 4998550105
field sqrsum 3.3318835434898e+014
field min 1
field max 99985
statistic Basic.rack[6].node[4].app 	"End-to-End Delay"
field count 99985
field mean 3.5777687088001e-005
field stddev 3.3944652501469e-005
field sum 3.5772320434938
field sqrsum 0.00024319059620691
field min 8.496e-007
field max 0.000400650271
statistic Basic.rack[6].node[4].app 	hops
field count 99985
field mean 5.0053508026204
field stddev 0.91037024173811
field sum 500460
field sqrsum 2587842
field min 3
field max 6
statistic Basic.rack[6].node[5].app 	throughput
field count 100033
field mean 50017
field stddev 28877.184076129
field sum 5003350561
field sqrsum 3.3366844556253e+014
field min 1
field max 100033
statistic Basic.rack[6].node[5].app 	"End-to-End Delay"
field count 100033
field mean 3.6071709333438e-005
field stddev 3.441381569378e-005
field sum 3.6083612997518
field sqrsum 0.00024862872897795
field min 8.496e-007
field max 0.000372595596
statistic Basic.rack[6].node[5].app 	hops
field count 100033
field mean 5.0041986144572
field stddev 0.91234642844564
field sum 500585
field sqrsum 2588291
field min 3
field max 6
statistic Basic.rack[6].node[6].app 	throughput
field count 100068
field mean 50034.5
field stddev 28887.28770584
field sum 5006852346
field sqrsum 3.3401880265713e+014
field min 1
field max 100068
statistic Basic.rack[6].node[6].app 	"End-to-End Delay"
field count 100068
field mean 3.5886856340216e-005
field stddev 3.4184183208446e-005
field sum 3.5911259402528
field sqrsum 0.00024580835229191
field min 8.496e-007
field max 0.000312432648
statistic Basic.rack[6].node[6].app 	hops
field count 100068
field mean 5.0013290962146
field stddev 0.91144481023363
field sum 500473
field sqrsum 2586159
field min 3
field max 6
statistic Basic.rack[6].node[7].app 	throughput
field count 100561
field mean 50281
field stddev 29029.604547197
field sum 5056307641
field sqrsum 3.3897992056028e+014
field min 1
field max 100561
statistic Basic.rack[6].node[7].app 	"End-to-End Delay"
field count 100561
field mean 3.6045765417367e-005
field stddev 3.4424644466098e-005
field sum 3.6247982161358
field sqrsum 0.00024982787228795
field min 8.496e-007
field max 0.00046713257
statistic Basic.rack[6].node[7].app 	hops
field count 100561
field mean 4.9991050208331
field stddev 0.91280512739326
field sum 502715
field sqrsum 2596913
field min 3
field max 6
statistic Basic.rack[6].node[8].app 	throughput
field count 99651
field mean 49826
field stddev 28766.910174713
field sum 4965210726
field sqrsum 3.2986046444133e+014
field min 1
field max 99651
statistic Basic.rack[6].node[8].app 	"End-to-End Delay"
field count 99651
field mean 3.6087775955553e-005
field stddev 3.431248549165e-005
field sum 3.5961829617468
field sqrsum 0.00024710083974894
field min 8.496e-007
field max 0.000423000824
statistic Basic.rack[6].node[8].app 	hops
field count 99651
field mean 5.0025990707569
field stddev 0.90917344640697
field sum 498514
field sqrsum 2576236
field min 3
field max 6
statistic Basic.rack[6].node[9].app 	throughput
field count 100011
field mean 50006
field stddev 28870.833223168
field sum 5001150066
field sqrsum 3.3344834655051e+014
field min 1
field max 100011
statistic Basic.rack[6].node[9].app 	"End-to-End Delay"
field count 100011
field mean 3.6120953858564e-005
field stddev 3.4461876826448e-005
field sum 3.6124927163488
field sqrsum 0.0002492606543713
field min 8.496e-007
field max 0.000348045587
statistic Basic.rack[6].node[9].app 	hops
field count 100011
field mean 4.9997200307966
field stddev 0.91309175220995
field sum 500027
field sqrsum 2583377
field min 3
field max 6
statistic Basic.rack[6].eps.queue[0] 	dropsum
field count 0
field mean nan
field stddev nan
field sum 0
field sqrsum 0
field min nan
field max nan
statistic Basic.rack[6].eps.queue[1] 	dropsum
field count 0
field mean nan
field stddev nan
field sum 0
field sqrsum 0
field min nan
field max nan
statistic Basic.rack[6].eps.queue[2] 	dropsum
field count 0
field mean nan
field stddev nan
field sum 0
field sqrsum 0
field min nan
field max nan
statistic Basic.rack[6].eps.queue[3] 	dropsum
field count 0
field mean nan
field stddev nan
field sum 0
field sqrsum 0
field min nan
field max nan
statistic Basic.rack[7].node[0].app 	throughput
field count 100156
field mean 50078.5
field stddev 28912.691117685
field sum 5015662246
field sqrsum 3.3490078382767e+014
field min 1
field max 100156
statistic Basic.rack[7].node[0].app 	"End-to-End Delay"
field count 100156
field mean 3.6777777131911e-005
field stddev 3.2221116834773e-005
field sum 3.6835150464237
field sqrsum 0.00023945245350478
field min 8.496e-007
field max 0.000322781155
statistic Basic.rack[7].node[0].app 	hops
field count 100156
field mean 4.997084548105
field stddev 0.91254629402317
field sum 500488
field sqrsum 2584384
field min 3
field max 6
statistic Basic.rack[7].node[1].app 	throughput
field count 99976
field mean 49988.5
field stddev 28860.729593457
field sum 4997650276
field sqrsum 3.3309838854568e+014
field min 1
field max 99976
statistic Basic.rack[7].node[1].app 	"End-to-End Delay"
field count 99976
field mean 3.6795220688151e-005
field stddev 3.2111957202524e-005
field sum 3.6786389835186
field sqrsum 0.00023844833332339
field min 8.496e-007
field max 0.000330954177
statistic Basic.rack[7].node[1].app 	hops
field count 99976
field mean 4.9980995438905
field stddev 0.91574343330559
field sum 499690
field sqrsum 2581338
field min 3
field max 6
statistic Basic.rack[7].node[2].app 	throughput
field count 100252
field mean 50126.5
field stddev 28940.403930607
field sum 5025281878
field sqrsum 3.3586471431613e+014
field min 1
field max 100252
statistic Basic.rack[7].node[2].app 	"End-to-End Delay"
field count 100252
field mean 3.681587877651e-005
field stddev 3.2272351722223e-005
field sum 3.6908654791027
field sqrsum 0.00024029434230344
field min 8.496e-007
field max 0.000332380332
statistic Basic.rack[7].node[2].app 	hops
field count 100252
field mean 5.0022842437059
field stddev 0.9115805020745
field sum 501489
field sqrsum 2591897
field min 3
field max 6
statistic Basic.rack[7].node[3].app 	throughput
field count 100360
field mean 50180.5
field stddev 28971.580845143
field sum 5036114980
field sqrsum 3.3695134496686e+014
field min 1
field max 100360
statistic Basic.rack[7].node[3].app 	"End-to-End Delay"
field count 100360
field mean 3.6869814794835e-005
field stddev 3.2431909965006e-005
field sum 3.7002546128097
field sqrsum 0.0002419881871993
field min 8.496e-007
field max 0.000322972415
statistic Basic.rack[7].node[3].app 	hops
field count 100360
field mean 4.9970207253886
field stddev 0.91595261480471
field sum 501501
field sqrsum 2590209
field min 3
field max 6
statistic Basic.rack[7].node[4].app 	throughput
field count 99764
field mean 49882.5
field stddev 28799.530464923
field sum 4976477730
field sqrsum 3.3098387499639e+014
field min 1
field max 99764
statistic Basic.rack[7].node[4].app 	"End-to-End Delay"
field count 99764
field mean 3.6960539876806e-005
field stddev 3.2285200285362e-005
field sum 3.6873313002696
field sqrsum 0.00024027213811388
field min 8.496e-007
field max 0.000320507718
statistic Basic.rack[7].node[4].app 	hops
field count 99764
field mean 5.0030070967483
field stddev 0.91017268726857
field sum 499120
field sqrsum 2579746
field min 3
field max 6
statistic Basic.rack[7].node[5].app 	throughput
field count 99939
field mean 49970
field stddev 28850.048613477
field sum 4993951830
field sqrsum 3.3272869927619e+014
field min 1
field max 99939
statistic Basic.rack[7].node[5].app 	"End-to-End Delay"
field count 99939
field mean 3.6872210453453e-005
field stddev 3.2307177963253e-005
field sum 3.6849718405076
field sqrsum 0.0002401837192808
field min 8.496e-007
field max 0.000323989359
statistic Basic.rack[7].node[5].app 	hops
field count 99939
field mean 5.0009005493351
field stddev 0.91286135055095
field sum 499785
field sqrsum 2582655
field min 3
field max 6
statistic Basic.rack[7].node[6].app 	throughput
field count 100182
field mean 50091.5
field stddev 28920.196671185
field sum 5018266653
field sqrsum 3.3516166597612e+014
field min 1
field max 100182
statistic Basic.rack[7].node[6].app 	"End-to-End Delay"
field count 100182
field mean 3.6744646263137e-005
field stddev 3.2166983083384e-005
field sum 3.6811521519336
field sqrsum 0.00023892139711118
field min 8.496e-007
field max 0.000305138765
statistic Basic.rack[7].node[6].app 	hops
field count 100182
field mean 4.9992912898525
field stddev 0.91042256314587
field sum 500839
field sqrsum 2586877
field min 3
field max 6
statistic Basic.rack[7].node[7].app 	throughput
field count 99618
field mean 49809.5
field stddev 28757.383895271
field sum 4961922771
field sqrsum 3.2953286904191e+014
field min 1
field max 99618
statistic Basic.rack[7].node[7].app 	"End-to-End Delay"
field count 99618
field mean 3.6542304894604e-005
field stddev 3.1818817589525e-005
field sum 3.6402713289907
field sqrsum 0.00023387985665309
field min 8.496e-007
field max 0.000341826373
statistic Basic.rack[7].node[7].app 	hops
field count 99618
field mean 5.0014154068542
field stddev 0.91364384632349
field sum 498231
field sqrsum 2575015
field min 3
field max 6
statistic Basic.rack[7].node[8].app 	throughput
field count 99702
field mean 49851.5
field stddev 28781.632606577
field sum 4970294253
field sqrsum 3.3036717517316e+014
field min 1
field max 99702
statistic Basic.rack[7].node[8].app 	"End-to-End Delay"
field count 99702
field mean 3.6604201664256e-005
field stddev 3.2069251879216e-005
field sum 3.6495121143296
field sqrsum 0.00023612366638042
field min 8.496e-007
field max 0.000301905248
statistic Basic.rack[7].node[8].app 	hops
field count 99702
field mean 4.999709133217
field stddev 0.91430268749889
field sum 498481
field sqrsum 2575605
field min 3
field max 6
statistic Basic.rack[7].node[9].app 	throughput
field count 99861
field mean 49931
field stddev 28827.531952979
field sum 4986159591
field sqrsum 3.3195025066443e+014
field min 1
field max 99861
statistic Basic.rack[7].node[9].app 	"End-to-End Delay"
field count 99861
field mean 3.6703322638904e-005
field stddev 3.1888788470634e-005
field sum 3.6652305020436
field sqrsum 0.00023607325539873
field min 8.496e-007
field max 0.000320289562
statistic Basic.rack[7].node[9].app 	hops
field count 99861
field mean 5.0010314336928
field stddev 0.91133510959365
field sum 499408
field sqrsum 2580492
field min 3
field max 6
statistic Basic.rack[7].eps.queue[0] 	dropsum
field count 0
field mean nan
field stddev nan
field sum 0
field sqrsum 0
field min nan
field max nan
statistic Basic.rack[7].eps.queue[1] 	dropsum
field count 0
field mean nan
field stddev nan
field sum 0
field sqrsum 0
field min nan
field max nan
statistic Basic.rack[7].eps.queue[2] 	dropsum
field count 0
field mean nan
field stddev nan
field sum 0
field sqrsum 0
field min nan
field max nan
statistic Basic.rack[7].eps.queue[3] 	dropsum
field count 0
field mean nan
field stddev nan
field sum 0
field sqrsum 0
field min nan
field max nan
statistic Basic.rack[8].node[0].app 	throughput
field count 99690
field mean 49845.5
field stddev 28778.168504962
field sum 4969097895
field sqrsum 3.3024790246766e+014
field min 1
field max 99690
statistic Basic.rack[8].node[0].app 	"End-to-End Delay"
field count 99690
field mean 3.4774400889053e-005
field stddev 3.108917808318e-005
field sum 3.4666600246297
field sqrsum 0.0002169041318262
field min 8.496e-007
field max 0.000376985814
statistic Basic.rack[8].node[0].app 	hops
field count 99690
field mean 5.1681813622229
field stddev 0.68637297313404
field sum 515216
field sqrsum 2709694
field min 4
field max 6
statistic Basic.rack[8].node[1].app 	throughput
field count 99760
field mean 49880.5
field stddev 28798.375764384
field sum 4976078680
field sqrsum 3.3094406477076e+014
field min 1
field max 99760
statistic Basic.rack[8].node[1].app 	"End-to-End Delay"
field count 99760
field mean 3.4561658140654e-005
field stddev 3.0748235507708e-005
field sum 3.4478710161117
field sqrsum 0.00021348168364484
field min 8.496e-007
field max 0.000387135724
statistic Basic.rack[8].node[1].app 	hops
field count 99760
field mean 5.1661387329591
field stddev 0.68563627413618
field sum 515374
field sqrsum 2709390
field min 4
field max 6
statistic Basic.rack[8].node[2].app 	throughput
field count 99764
field mean 49882.5
field stddev 28799.530464923
field sum 4976477730
field sqrsum 3.3098387499639e+014
field min 1
field max 99764
statistic Basic.rack[8].node[2].app 	"End-to-End Delay"
field count 99764
field mean 3.4736559244303e-005
field stddev 3.0992920881315e-005
field sum 3.4654580964487
field sqrsum 0.00021620655196018
field min 8.496e-007
field max 0.00038351563
statistic Basic.rack[8].node[2].app 	hops
field count 99764
field mean 5.1621627039814
field stddev 0.685447908882
field sum 514998
field sqrsum 2705376
field min 4
field max 6
statistic Basic.rack[8].node[3].app 	throughput
field count 99930
field mean 49965.5
field stddev 28847.450537266
field sum 4993052415
field sqrsum 3.326388162381e+014
field min 1
field max 99930
statistic Basic.rack[8].node[3].app 	"End-to-End Delay"
field count 99930
field mean 3.4431921969035e-005
field stddev 3.0802966659662e-005
field sum 3.4407819623657
field sqrsum 0.00021328764512866
field min 8.496e-007
field max 0.000370131666
statistic Basic.rack[8].node[3].app 	hops
field count 99930
field mean 5.1612828980286
field stddev 0.68761306826892
field sum 515767
field sqrsum 2709267
field min 4
field max 6
statistic Basic.rack[8].node[4].app 	throughput
field count 100015
field mean 50008
field stddev 28871.987923707
field sum 5001550120
field sqrsum 3.3348835735124e+014
field min 1
field max 100015
statistic Basic.rack[8].node[4].app 	"End-to-End Delay"
field count 100015
field mean 3.4699478863318e-005
field stddev 3.0874523598561e-005
field sum 3.4704683785147
field sqrsum 0.0002157604101968
field min 8.496e-007
field max 0.000379166667
statistic Basic.rack[8].node[4].app 	hops
field count 100015
field mean 5.1702744588312
field stddev 0.68509601498191
field sum 517105
field sqrsum 2720517
field min 4
field max 6
statistic Basic.rack[8].node[5].app 	throughput
field count 100970
field mean 50485.5
field stddev 29147.672677248
field sum 5097520935
field sqrsum 3.4313282504494e+014
field min 1
field max 100970
statistic Basic.rack[8].node[5].app 	"End-to-End Delay"
field count 100970
field mean 3.4755419140673e-005
field stddev 3.1090642845292e-005
field sum 3.5092546706337
field sqrsum 0.00021956508680487
field min 8.496e-007
field max 0.000362943828
statistic Basic.rack[8].node[5].app 	hops
field count 100970
field mean 5.1671981776765
field stddev 0.68687833258768
field sum 521732
field sqrsum 2743530
field min 4
field max 6
statistic Basic.rack[8].node[6].app 	throughput
field count 100553
field mean 50277
field stddev 29027.295146121
field sum 5055503181
field sqrsum 3.3889902607379e+014
field min 1
field max 100553
statistic Basic.rack[8].node[6].app 	"End-to-End Delay"
field count 100553
field mean 3.4728995724073e-005
field stddev 3.0828739940172e-005
field sum 3.4921047070427
field sqrsum 0.00021684303705465
field min 8.496e-007
field max 0.000324185949
statistic Basic.rack[8].node[6].app 	hops
field count 100553
field mean 5.1657533837877
field stddev 0.68690561973258
field sum 519432
field sqrsum 2730702
field min 4
field max 6
statistic Basic.rack[8].node[7].app 	throughput
field count 99781
field mean 49891
field stddev 28804.437942211
field sum 4978173871
field sqrsum 3.3115310407279e+014
field min 1
field max 99781
statistic Basic.rack[8].node[7].app 	"End-to-End Delay"
field count 99781
field mean 3.4595756159716e-005
field stddev 3.0910622831607e-005
field sum 3.4519991453727
field sqrsum 0.0002147609784278
field min 8.496e-007
field max 0.00038299717
statistic Basic.rack[8].node[7].app 	hops
field count 99781
field mean 5.1639991581564
field stddev 0.68765069432786
field sum 515269
field sqrsum 2708031
field min 4
field max 6
statistic Basic.rack[8].node[8].app 	throughput
field count 99893
field mean 49947
field stddev 28836.769557286
field sum 4989355671
field sqrsum 3.3226946714736e+014
field min 1
field max 99893
statistic Basic.rack[8].node[8].app 	"End-to-End Delay"
field count 99893
field mean 3.4762730131548e-005
field stddev 3.1110411396621e-005
field sum 3.4725534010307
field sqrsum 0.00021739667784281
field min 8.496e-007
field max 0.000360242524
statistic Basic.rack[8].node[8].app 	hops
field count 99893
field mean 5.1624538255934
field stddev 0.68742079130222
field sum 515693
field sqrsum 2709445
field min 4
field max 6
statistic Basic.rack[8].node[9].app 	throughput
field count 100085
field mean 50043
field stddev 28892.195183129
field sum 5008553655
field sqrsum 3.3418906455834e+014
field min 1
field max 100085
statistic Basic.rack[8].node[9].app 	"End-to-End Delay"
field count 100085
field mean 3.4816962169253e-005
field stddev 3.107156832469e-005
field sum 3.4846556587097
field sqrsum 0.00021795045721584
field min 8.496e-007
field max 0.000378902979
statistic Basic.rack[8].node[9].app 	hops
field count 100085
field mean 5.167817355248
field stddev 0.68553528848766
field sum 517221
field sqrsum 2719939
field min 4
field max 6
statistic Basic.rack[8].eps.queue[0] 	dropsum
field count 0
field mean nan
field stddev nan
field sum 0
field sqrsum 0
field min nan
field max nan
statistic Basic.rack[8].eps.queue[1] 	dropsum
field count 0
field mean nan
field stddev nan
field sum 0
field sqrsum 0
field min nan
field max nan
statistic Basic.rack[8].eps.queue[2] 	dropsum
field count 0
field mean nan
field stddev nan
field sum 0
field sqrsum 0
field min nan
field max nan
statistic Basic.rack[8].eps.queue[3] 	dropsum
field count 0
field mean nan
field stddev nan
field sum 0
field sqrsum 0
field min nan
field max nan
statistic Basic.rack[9].node[0].app 	throughput
field count 98986
field mean 49493.5
field stddev 28574.941210205
field sum 4899163591
field sqrsum 3.2330070453368e+014
field min 1
field max 98986
statistic Basic.rack[9].node[0].app 	"End-to-End Delay"
field count 98986
field mean 3.0818511857469e-005
field stddev 2.6174301170298e-005
field sum 3.0506012147234
field sqrsum 0.00016182902343133
field min 8.496e-007
field max 0.000299578125
statistic Basic.rack[9].node[0].app 	hops
field count 98986
field mean 5.1672862829087
field stddev 0.68824187956983
field sum 511489
field sqrsum 2689897
field min 4
field max 6
statistic Basic.rack[9].node[1].app 	throughput
field count 100253
field mean 50127
field stddev 28940.692605741
field sum 5025382131
field sqrsum 3.3587476498014e+014
field min 1
field max 100253
statistic Basic.rack[9].node[1].app 	"End-to-End Delay"
field count 100253
field mean 3.0829701128271e-005
field stddev 2.6053931138355e-005
field sum 3.0907700272125
field sqrsum 0.00016333930841799
field min 8.496e-007
field max 0.000317504473
statistic Basic.rack[9].node[1].app 	hops
field count 100253
field mean 5.1652120136056
field stddev 0.6870926077556
field sum 517828
field sqrsum 2722020
field min 4
field max 6
statistic Basic.rack[9].node[2].app 	throughput
field count 99876
field mean 49938.5
field stddev 28831.862079998
field sum 4987657626
field sqrsum 3.3209985792213e+014
field min 1
field max 99876
statistic Basic.rack[9].node[2].app 	"End-to-End Delay"
field count 99876
field mean 3.0890656477637e-005
field stddev 2.6193334704469e-005
field sum 3.0852352063605
field sqrsum 0.00016382825785856
field min 8.496e-007
field max 0.000399801154
statistic Basic.rack[9].node[2].app 	hops
field count 99876
field mean 5.1695202050543
field stddev 0.68707978603124
field sum 516311
field sqrsum 2716229
field min 4
field max 6
statistic Basic.rack[9].node[3].app 	throughput
field count 99688
field mean 49844.5
field stddev 28777.591154693
field sum 4968898516
field sqrsum 3.3022802647484e+014
field min 1
field max 99688
statistic Basic.rack[9].node[3].app 	"End-to-End Delay"
field count 99688
field mean 3.0805184278203e-005
field stddev 2.6160123008812e-005
field sum 3.0709072103255
field sqrsum 0.00016282086391174
field min 8.496e-007
field max 0.000299365473
statistic Basic.rack[9].node[3].app 	hops
field count 99688
field mean 5.1671916379103
field stddev 0.68861337435227
field sum 515107
field sqrsum 2708927
field min 4
field max 6
statistic Basic.rack[9].node[4].app 	throughput
field count 99732
field mean 49866.5
field stddev 28790.292860615
field sum 4973285778
field sqrsum 3.3066548256959e+014
field min 1
field max 99732
statistic Basic.rack[9].node[4].app 	"End-to-End Delay"
field count 99732
field mean 3.0853386233821e-005
field stddev 2.6198251044408e-005
field sum 3.0770699158715
field sqrsum 0.00016338823465319
field min 8.496e-007
field max 0.000389974744
statistic Basic.rack[9].node[4].app 	hops
field count 99732
field mean 5.1666666666667
field stddev 0.68718771611655
field sum 515282
field sqrsum 2709386
field min 4
field max 6
statistic Basic.rack[9].node[5].app 	throughput
field count 100484
field mean 50242.5
field stddev 29007.376561833
field sum 5048567370
field sqrsum 3.3820184526051e+014
field min 1
field max 100484
statistic Basic.rack[9].node[5].app 	"End-to-End Delay"
field count 100484
field mean 3.0918121252244e-005
field stddev 2.6425264501921e-005
field sum 3.1067764959105
field sqrsum 0.00016622242909757
field min 8.496e-007
field max 0.000402738037
statistic Basic.rack[9].node[5].app 	hops
field count 100484
field mean 5.1628318936348
field stddev 0.68778819523036
field sum 518782
field sqrsum 2725918
field min 4
field max 6
statistic Basic.rack[9].node[6].app 	throughput
field count 100293
field mean 50147
field stddev 28952.239611125
field sum 5029393071
field sqrsum 3.3627695597756e+014
field min 1
field max 100293
statistic Basic.rack[9].node[6].app 	"End-to-End Delay"
field count 100293
field mean 3.0969967703873e-005
field stddev 2.6245924842901e-005
field sum 3.1060709709245
field sqrsum 0.00016528091852408
field min 8.496e-007
field max 0.000310876855
statistic Basic.rack[9].node[6].app 	hops
field count 100293
field mean 5.1668610969858
field stddev 0.68795625348117
field sum 518200
field sqrsum 2724934
field min 4
field max 6
statistic Basic.rack[9].node[7].app 	throughput
field count 100173
field mean 50087
field stddev 28917.598594973
field sum 5017365051
field sqrsum 3.350713452909e+014
field min 1
field max 100173
statistic Basic.rack[9].node[7].app 	"End-to-End Delay"
field count 100173
field mean 3.0943567763604e-005
field stddev 2.6314584406497e-005
field sum 3.0997100135835
field sqrsum 0.00016528092476614
field min 8.496e-007
field max 0.000337639186
statistic Basic.rack[9].node[7].app 	hops
field count 100173
field mean 5.1652141794695
field stddev 0.68693916061899
field sum 517415
field sqrsum 2719829
field min 4
field max 6
statistic Basic.rack[9].node[8].app 	throughput
field count 99412
field mean 49706.5
field stddev 28697.916817544
field sum 4941422578
field sqrsum 3.2749278135695e+014
field min 1
field max 99412
statistic Basic.rack[9].node[8].app 	"End-to-End Delay"
field count 99412
field mean 3.1016296355707e-005
field stddev 2.6266672799759e-005
field sum 3.0833920533135
field sqrsum 0.00016422283816248
field min 8.496e-007
field max 0.000395329676
statistic Basic.rack[9].node[8].app 	hops
field count 99412
field mean 5.1699794793385
field stddev 0.6869763998874
field sum 513958
field sqrsum 2704068
field min 4
field max 6
statistic Basic.rack[9].node[9].app 	throughput
field count 99830
field mean 49915.5
field stddev 28818.583023806
field sum 4983064365
field sqrsum 3.3164120472676e+014
field min 1
field max 99830
statistic Basic.rack[9].node[9].app 	"End-to-End Delay"
field count 99830
field mean 3.0912079923525e-005
field stddev 2.6256420435819e-005
field sum 3.0859529387655
field sqrsum 0.0001642152979596
field min 8.496e-007
field max 0.000319630396
statistic Basic.rack[9].node[9].app 	hops
field count 99830
field mean 5.1680156265652
field stddev 0.68854879929751
field sum 515923
field sqrsum 2713627
field min 4
field max 6
statistic Basic.rack[9].eps.queue[0] 	dropsum
field count 0
field mean nan
field stddev nan
field sum 0
field sqrsum 0
field min nan
field max nan
statistic Basic.rack[9].eps.queue[1] 	dropsum
field count 0
field mean nan
field stddev nan
field sum 0
field sqrsum 0
field min nan
field max nan
statistic Basic.rack[9].eps.queue[2] 	dropsum
field count 0
field mean nan
field stddev nan
field sum 0
field sqrsum 0
field min nan
field max nan
statistic Basic.rack[9].eps.queue[3] 	dropsum
field count 0
field mean nan
field stddev nan
field sum 0
field sqrsum 0
field min nan
field max nan
statistic Basic.rack[10].node[0].app 	throughput
field count 100139
field mean 50070
field stddev 28907.783640397
field sum 5013959730
field sqrsum 3.3473028025489e+014
field min 1
field max 100139
statistic Basic.rack[10].node[0].app 	"End-to-End Delay"
field count 100139
field mean 3.0094747049737e-005
field stddev 2.3814157574991e-005
field sum 3.0136578748136
field sqrsum 0.00014748494328355
field min 8.496e-007
field max 0.000290611373
statistic Basic.rack[10].node[0].app 	hops
field count 100139
field mean 5.0032754471285
field stddev 0.91261158761973
field sum 501023
field sqrsum 2590157
field min 3
field max 6
statistic Basic.rack[10].node[1].app 	throughput
field count 99967
field mean 49984
field stddev 28858.131517246
field sum 4996750528
field sqrsum 3.3300843893856e+014
field min 1
field max 99967
statistic Basic.rack[10].node[1].app 	"End-to-End Delay"
field count 99967
field mean 3.0067299796619e-005
field stddev 2.3829353459799e-005
field sum 3.0057377587686
field sqrsum 0.00014713892043918
field min 8.496e-007
field max 0.000265543234
statistic Basic.rack[10].node[1].app 	hops
field count 99967
field mean 4.9992697590205
field stddev 0.91409712937693
field sum 499762
field sqrsum 2581974
field min 3
field max 6
statistic Basic.rack[10].node[2].app 	throughput
field count 99472
field mean 49736.5
field stddev 28715.23732562
field sum 4947389128
field sqrsum 3.2808611002332e+014
field min 1
field max 99472
statistic Basic.rack[10].node[2].app 	"End-to-End Delay"
field count 99472
field mean 3.0059949116149e-005
field stddev 2.3789014352762e-005
field sum 2.9901232584815
field sqrsum 0.00014617530318771
field min 8.496e-007
field max 0.000252654469
statistic Basic.rack[10].node[2].app 	hops
field count 99472
field mean 4.9988137365289
field stddev 0.90966810119765
field sum 497242
field sqrsum 2567932
field min 3
field max 6
statistic Basic.rack[10].node[3].app 	throughput
field count 99946
field mean 49973.5
field stddev 28852.069339419
field sum 4994651431
field sqrsum 3.3279861949896e+014
field min 1
field max 99946
statistic Basic.rack[10].node[3].app 	"End-to-End Delay"
field count 99946
field mean 3.0170162251051e-005
field stddev 2.3888463018922e-005
field sum 3.0153870363435
field sqrsum 0.00014800919645024
field min 8.496e-007
field max 0.000311665789
statistic Basic.rack[10].node[3].app 	hops
field count 99946
field mean 4.9995897784804
field stddev 0.91166164317283
field sum 499689
field sqrsum 2581307
field min 3
field max 6
statistic Basic.rack[10].node[4].app 	throughput
field count 99843
field mean 49922
field stddev 28822.335800556
field sum 4984362246
field sqrsum 3.3177078127233e+014
field min 1
field max 99843
statistic Basic.rack[10].node[4].app 	"End-to-End Delay"
field count 99843
field mean 3.0098819660162e-005
field stddev 2.3799366181647e-005
field sum 3.0051564513296
field sqrsum 0.00014700315239071
field min 8.496e-007
field max 0.000263994156
statistic Basic.rack[10].node[4].app 	hops
field count 99843
field mean 4.9920274831485
field stddev 0.91759842961568
field sum 498419
field sqrsum 2572187
field min 3
field max 6
statistic Basic.rack[10].node[5].app 	throughput
field count 100049
field mean 50025
field stddev 28881.802878283
field sum 5004951225
field sqrsum 3.3382857839042e+014
field min 1
field max 100049
statistic Basic.rack[10].node[5].app 	"End-to-End Delay"
field count 100049
field mean 3.0016859844722e-005
field stddev 2.3858832552311e-005
field sum 3.0031568106046
field sqrsum 0.00014709704985832
field min 8.496e-007
field max 0.000275749674
statistic Basic.rack[10].node[5].app 	hops
field count 100049
field mean 4.9939529630481
field stddev 0.9145446666466
field sum 499640
field sqrsum 2578858
field min 3
field max 6
statistic Basic.rack[10].node[6].app 	throughput
field count 99766
field mean 49883.5
field stddev 28800.107815192
field sum 4976677261
field sqrsum 3.3100378130637e+014
field min 1
field max 99766
statistic Basic.rack[10].node[6].app 	"End-to-End Delay"
field count 99766
field mean 3.0235155019942e-005
field stddev 2.3926373113107e-005
field sum 3.0164404757195
field sqrsum 0.00014831514766394
field min 8.496e-007
field max 0.000279327418
statistic Basic.rack[10].node[6].app 	hops
field count 99766
field mean 5.0028767315518
field stddev 0.91191885295086
field sum 499117
field sqrsum 2579985
field min 3
field max 6
statistic Basic.rack[10].node[7].app 	throughput
field count 99786
field mean 49893.5
field stddev 28805.881317884
field sum 4978672791
field sqrsum 3.3120288830608e+014
field min 1
field max 99786
statistic Basic.rack[10].node[7].app 	"End-to-End Delay"
field count 99786
field mean 3.0100529652332e-005
field stddev 2.3958996545751e-005
field sum 3.0036114518876
field sqrsum 0.00014769022991373
field min 8.496e-007
field max 0.000264389472
statistic Basic.rack[10].node[7].app 	hops
field count 99786
field mean 5.0011725091696
field stddev 0.91106157834874
field sum 499047
field sqrsum 2578645
field min 3
field max 6
statistic Basic.rack[10].node[8].app 	throughput
field count 99559
field mean 49780
field stddev 28740.35206233
field sum 4956047020
field sqrsum 3.2894770885846e+014
field min 1
field max 99559
statistic Basic.rack[10].node[8].app 	"End-to-End Delay"
field count 99559
field mean 3.0178514332432e-005
field stddev 2.3968397831561e-005
field sum 3.0045427084226
field sqrsum 0.00014786712267991
field min 8.496e-007
field max 0.000297508109
statistic Basic.rack[10].node[8].app 	hops
field count 99559
field mean 5.0006930563786
field stddev 0.91320069906634
field sum 497864
field sqrsum 2572690
field min 3
field max 6
statistic Basic.rack[10].node[9].app 	throughput
field count 100173
field mean 50087
field stddev 28917.598594973
field sum 5017365051
field sqrsum 3.350713452909e+014
field min 1
field max 100173
statistic Basic.rack[10].node[9].app 	"End-to-End Delay"
field count 100173
field mean 3.0194256175273e-005
field stddev 2.3792138116026e-005
field sum 3.0246492238456
field sqrsum 0.00014803098044215
field min 8.496e-007
field max 0.00022091815
statistic Basic.rack[10].node[9].app 	hops
field count 100173
field mean 5.004721831232
field stddev 0.91090093427196
field sum 501338
field sqrsum 2592174
field min 3
field max 6
statistic Basic.rack[10].eps.queue[0] 	dropsum
field count 0
field mean nan
field stddev nan
field sum 0
field sqrsum 0
field min nan
field max nan
statistic Basic.rack[10].eps.queue[1] 	dropsum
field count 0
field mean nan
field stddev nan
field sum 0
field sqrsum 0
field min nan
field max nan
statistic Basic.rack[10].eps.queue[2] 	dropsum
field count 0
field mean nan
field stddev nan
field sum 0
field sqrsum 0
field min nan
field max nan
statistic Basic.rack[10].eps.queue[3] 	dropsum
field count 0
field mean nan
field stddev nan
field sum 0
field sqrsum 0
field min nan
field max nan
statistic Basic.rack[11].node[0].app 	throughput
field count 99983
field mean 49992
field stddev 28862.7503194
field sum 4998350136
field sqrsum 3.331683605485e+014
field min 1
field max 99983
statistic Basic.rack[11].node[0].app 	"End-to-End Delay"
field count 99983
field mean 2.7805489040422e-005
field stddev 2.282039950177e-005
field sum 2.7800762107285
field sqrsum 0.00012936906807959
field min 8.496e-007
field max 0.000295330591
statistic Basic.rack[11].node[0].app 	hops
field count 99983
field mean 5.0052908994529
field stddev 0.90834493857611
field sum 500444
field sqrsum 2587362
field min 3
field max 6
statistic Basic.rack[11].node[1].app 	throughput
field count 100153
field mean 50077
field stddev 28911.825092281
field sum 5015361781
field sqrsum 3.3487069075559e+014
field min 1
field max 100153
statistic Basic.rack[11].node[1].app 	"End-to-End Delay"
field count 100153
field mean 2.7752094095679e-005
field stddev 2.2819795738837e-005
field sum 2.7794554799645
field sqrsum 0.00012928917071874
field min 8.496e-007
field max 0.000311572486
statistic Basic.rack[11].node[1].app 	hops
field count 100153
field mean 4.9974638802632
field stddev 0.9141025497062
field sum 500511
field sqrsum 2584971
field min 3
field max 6
statistic Basic.rack[11].node[2].app 	throughput
field count 99785
field mean 49893
field stddev 28805.592642749
field sum 4978573005
field sqrsum 3.3119293106028e+014
field min 1
field max 99785
[...]
field count 100489
field mean 50245
field stddev 29008.819937506
field sum 5049069805
field sqrsum 3.3825233344636e+014
field min 1
field max 100489
statistic Basic.rack[13].node[2].app 	"End-to-End Delay"
field count 100489
field mean 2.8201716531934e-005
field stddev 2.1701494108393e-005
field sum 2.8339622925775
field sqrsum 0.00012724791185623
field min 8.496e-007
field max 0.000375105058
statistic Basic.rack[13].node[2].app 	hops
field count 100489
field mean 5.1646548378429
field stddev 0.68918670644952
field sum 518991
field sqrsum 2728139
field min 4
field max 6
statistic Basic.rack[13].node[3].app 	throughput
field count 100004
field mean 50002.5
field stddev 28868.812497226
field sum 5000450010
field sqrsum 3.3337833535003e+014
field min 1
field max 100004
statistic Basic.rack[13].node[3].app 	"End-to-End Delay"
field count 100004
field mean 2.831818386338e-005
field stddev 2.1738966392296e-005
field sum 2.8319316590735
field sqrsum 0.00012745484513869
field min 8.496e-007
field max 0.000359845037
statistic Basic.rack[13].node[3].app 	hops
field count 100004
field mean 5.1702031918723
field stddev 0.6875649295488
field sum 517041
field sqrsum 2720483
field min 4
field max 6
statistic Basic.rack[13].node[4].app 	throughput
field count 99889
field mean 49945
field stddev 28835.614856747
field sum 4988956105
field sqrsum 3.3222955390026e+014
field min 1
field max 99889
statistic Basic.rack[13].node[4].app 	"End-to-End Delay"
field count 99889
field mean 2.8277191002658e-005
field stddev 2.1551028176073e-005
field sum 2.8245803320645
field sqrsum 0.0001262638610534
field min 8.496e-007
field max 0.000368014463
statistic Basic.rack[13].node[4].app 	hops
field count 99889
field mean 5.164302375637
field stddev 0.68604798328256
field sum 515857
field sqrsum 2711055
field min 4
field max 6
statistic Basic.rack[13].node[5].app 	throughput
field count 99939
field mean 49970
field stddev 28850.048613477
field sum 4993951830
field sqrsum 3.3272869927619e+014
field min 1
field max 99939
statistic Basic.rack[13].node[5].app 	"End-to-End Delay"
field count 99939
field mean 2.8273358264926e-005
field stddev 2.18038779986e-005
field sum 2.8256111516385
field sqrsum 0.00012740095062149
field min 8.496e-007
field max 0.000287342648
statistic Basic.rack[13].node[5].app 	hops
field count 99939
field mean 5.1674321336015
field stddev 0.68666288289932
field sum 516428
field sqrsum 2715728
field min 4
field max 6
statistic Basic.rack[13].node[6].app 	throughput
field count 100261
field mean 50131
field stddev 28943.002006818
field sum 5026184191
field sqrsum 3.3595517751063e+014
field min 1
field max 100261
statistic Basic.rack[13].node[6].app 	"End-to-End Delay"
field count 100261
field mean 2.8228457207055e-005
field stddev 2.178773903063e-005
field sum 2.8302133480365
field sqrsum 0.00012748653703731
field min 8.496e-007
field max 0.000358693034
statistic Basic.rack[13].node[6].app 	hops
field count 100261
field mean 5.1682508652417
field stddev 0.68623855968918
field sum 518174
field sqrsum 2725268
field min 4
field max 6
statistic Basic.rack[13].node[7].app 	throughput
field count 99795
field mean 49898
field stddev 28808.479394095
field sum 4979570910
field sqrsum 3.3129251249927e+014
field min 1
field max 99795
statistic Basic.rack[13].node[7].app 	"End-to-End Delay"
field count 99795
field mean 2.8167538116554e-005
field stddev 2.1652284481739e-005
field sum 2.8109794663415
field sqrsum 0.00012596393637764
field min 8.496e-007
field max 0.000355201691
statistic Basic.rack[13].node[7].app 	hops
field count 99795
field mean 5.1649681847788
field stddev 0.68798716557816
field sum 515438
field sqrsum 2709456
field min 4
field max 6
statistic Basic.rack[13].node[8].app 	throughput
field count 100001
field mean 50001
field stddev 28867.946471822
field sum 5000150001
field sqrsum 3.3334833355e+014
field min 1
field max 100001
statistic Basic.rack[13].node[8].app 	"End-to-End Delay"
field count 100001
field mean 2.8206499834706e-005
field stddev 2.1722453647942e-005
field sum 2.8206781899705
field sqrsum 0.00012674795814786
field min 8.496e-007
field max 0.000336716108
statistic Basic.rack[13].node[8].app 	hops
field count 100001
field mean 5.1681483185168
field stddev 0.68680117955737
field sum 516820
field sqrsum 2718172
field min 4
field max 6
statistic Basic.rack[13].node[9].app 	throughput
field count 100551
field mean 50276
field stddev 29026.717795851
field sum 5055302076
field sqrsum 3.3887880446328e+014
field min 1
field max 100551
statistic Basic.rack[13].node[9].app 	"End-to-End Delay"
field count 100551
field mean 2.8281615014624e-005
field stddev 2.1549843772008e-005
field sum 2.8437446713355
field sqrsum 0.00012712068632602
field min 8.496e-007
field max 0.000318503165
statistic Basic.rack[13].node[9].app 	hops
field count 100551
field mean 5.1655876122565
field stddev 0.68915709839977
field sum 519405
field sqrsum 2730787
field min 4
field max 6
statistic Basic.rack[13].eps.queue[0] 	dropsum
field count 0
field mean nan
field stddev nan
field sum 0
field sqrsum 0
field min nan
field max nan
statistic Basic.rack[13].eps.queue[1] 	dropsum
field count 0
field mean nan
field stddev nan
field sum 0
field sqrsum 0
field min nan
field max nan
statistic Basic.rack[13].eps.queue[2] 	dropsum
field count 0
field mean nan
field stddev nan
field sum 0
field sqrsum 0
field min nan
field max nan
statistic Basic.rack[13].eps.queue[3] 	dropsum
field count 0
field mean nan
field stddev nan
field sum 0
field sqrsum 0
field min nan
field max nan
statistic Basic.rack[14].node[0].app 	throughput
field count 100086
field mean 50043.5
field stddev 28892.483858263
field sum 5008653741
field sqrsum 3.3419908176573e+014
field min 1
field max 100086
statistic Basic.rack[14].node[0].app 	"End-to-End Delay"
field count 100086
field mean 2.4956726368836e-005
field stddev 1.7319106508203e-005
field sum 2.4978189153513
field sqrsum 9.2358024086843e-005
field min 8.496e-007
field max 0.000201784739
statistic Basic.rack[14].node[0].app 	hops
field count 100086
field mean 4.9987310912615
field stddev 0.9119657116611
field sum 500303
field sqrsum 2584119
field min 3
field max 6
statistic Basic.rack[14].node[1].app 	throughput
field count 99791
field mean 49896
field stddev 28807.324693557
field sum 4979171736
field sqrsum 3.312526775287e+014
field min 1
field max 99791
statistic Basic.rack[14].node[1].app 	"End-to-End Delay"
field count 99791
field mean 2.4908821709807e-005
field stddev 1.7347893000588e-005
field sum 2.4856762272433
field sqrsum 9.1947005756469e-005
field min 8.496e-007
field max 0.000185637626
statistic Basic.rack[14].node[1].app 	hops
field count 99791
field mean 4.9983064605024
field stddev 0.91215920221178
field sum 498786
field sqrsum 2576114
field min 3
field max 6
statistic Basic.rack[14].node[2].app 	throughput
field count 100005
field mean 50003
field stddev 28869.101172361
field sum 5000550015
field sqrsum 3.3338833635006e+014
field min 1
field max 100005
statistic Basic.rack[14].node[2].app 	"End-to-End Delay"
field count 100005
field mean 2.4937158606323e-005
field stddev 1.7375819328475e-005
field sum 2.4938405464253
field sqrsum 9.2382414655055e-005
field min 8.496e-007
field max 0.000192902049
statistic Basic.rack[14].node[2].app 	hops
field count 100005
field mean 4.9995600219989
field stddev 0.91240698536859
field sum 499981
field sqrsum 2582937
field min 3
field max 6
statistic Basic.rack[14].node[3].app 	throughput
field count 99816
field mean 49908.5
field stddev 28814.541571922
field sum 4981666836
field sqrsum 3.315016984904e+014
field min 1
field max 99816
statistic Basic.rack[14].node[3].app 	"End-to-End Delay"
field count 99816
field mean 2.4865715418583e-005
field stddev 1.7324296755835e-005
field sum 2.4819962502213
field sqrsum 9.1674213953673e-005
field min 8.496e-007
field max 0.000159199999
statistic Basic.rack[14].node[3].app 	hops
field count 99816
field mean 4.9951610964174
field stddev 0.91245102707916
field sum 498597
field sqrsum 2573675
field min 3
field max 6
statistic Basic.rack[14].node[4].app 	throughput
field count 99712
field mean 49856.5
field stddev 28784.519357923
field sum 4971291328
field sqrsum 3.304665910288e+014
field min 1
field max 99712
statistic Basic.rack[14].node[4].app 	"End-to-End Delay"
field count 99712
field mean 2.497419436363e-005
field stddev 1.7377143384093e-005
field sum 2.4902268683863
field sqrsum 9.2300653122325e-005
field min 8.496e-007
field max 0.000170780643
statistic Basic.rack[14].node[4].app 	hops
field count 99712
field mean 4.9978738767651
field stddev 0.91594764439402
field sum 498348
field sqrsum 2574334
field min 3
field max 6
statistic Basic.rack[14].node[5].app 	throughput
field count 100406
field mean 50203.5
field stddev 28984.859901335
field sum 5040732621
field sqrsum 3.3741487994029e+014
field min 1
field max 100406
statistic Basic.rack[14].node[5].app 	"End-to-End Delay"
field count 100406
field mean 2.5138946937995e-005
field stddev 1.745186015648e-005
field sum 2.5241011062564
field sqrsum 9.403333587473e-005
field min 8.496e-007
field max 0.000181792022
statistic Basic.rack[14].node[5].app 	hops
field count 100406
field mean 5.0017130450371
field stddev 0.91330108514685
field sum 502202
field sqrsum 2595620
field min 3
field max 6
statistic Basic.rack[14].node[6].app 	throughput
field count 99572
field mean 49786.5
field stddev 28744.10483908
field sum 4957341378
field sqrsum 3.2907658290727e+014
field min 1
field max 99572
statistic Basic.rack[14].node[6].app 	"End-to-End Delay"
field count 99572
field mean 2.4934658119384e-005
field stddev 1.7323474606326e-005
field sum 2.4827937782633
field sqrsum 9.1789147196158e-005
field min 8.496e-007
field max 0.000182908963
statistic Basic.rack[14].node[6].app 	hops
field count 99572
field mean 5.0003715904069
field stddev 0.91047576969254
field sum 497897
field sqrsum 2572211
field min 3
field max 6
statistic Basic.rack[14].node[7].app 	throughput
field count 100009
field mean 50005
field stddev 28870.255872899
field sum 5000950045
field sqrsum 3.3342834235028e+014
field min 1
field max 100009
statistic Basic.rack[14].node[7].app 	"End-to-End Delay"
field count 100009
field mean 2.5018780204655e-005
field stddev 1.7353214448261e-005
field sum 2.5021031894874
field sqrsum 9.2715383988297e-005
field min 8.496e-007
field max 0.000174345936
statistic Basic.rack[14].node[7].app 	hops
field count 100009
field mean 4.997410233079
field stddev 0.91377048233357
field sum 499786
field sqrsum 2581140
field min 3
field max 6
statistic Basic.rack[14].node[8].app 	throughput
field count 99801
field mean 49901
field stddev 28810.211444903
field sum 4980169701
field sqrsum 3.313522709429e+014
field min 1
field max 99801
statistic Basic.rack[14].node[8].app 	"End-to-End Delay"
field count 99801
field mean 2.4866518896988e-005
field stddev 1.7207108545422e-005
field sum 2.4817034524383
field sqrsum 9.1260567329275e-005
field min 8.496e-007
field max 0.000186377772
statistic Basic.rack[14].node[8].app 	hops
field count 99801
field mean 4.9970441177944
field stddev 0.91226406901221
field sum 498710
field sqrsum 2575132
field min 3
field max 6
statistic Basic.rack[14].node[9].app 	throughput
field count 100157
field mean 50079
field stddev 28912.97979282
field sum 5015762403
field sqrsum 3.3491081525232e+014
field min 1
field max 100157
statistic Basic.rack[14].node[9].app 	"End-to-End Delay"
field count 100157
field mean 2.4981220252187e-005
field stddev 1.7361164012502e-005
field sum 2.5020440767983
field sqrsum 9.2692135712554e-005
field min 8.496e-007
field max 0.000179696117
statistic Basic.rack[14].node[9].app 	hops
field count 100157
field mean 4.9974040756013
field stddev 0.91260834883269
field sum 500525
field sqrsum 2584741
field min 3
field max 6
statistic Basic.rack[14].eps.queue[0] 	dropsum
field count 0
field mean nan
field stddev nan
field sum 0
field sqrsum 0
field min nan
field max nan
statistic Basic.rack[14].eps.queue[1] 	dropsum
field count 0
field mean nan
field stddev nan
field sum 0
field sqrsum 0
field min nan
field max nan
statistic Basic.rack[14].eps.queue[2] 	dropsum
field count 0
field mean nan
field stddev nan
field sum 0
field sqrsum 0
field min nan
field max nan
statistic Basic.rack[14].eps.queue[3] 	dropsum
field count 0
field mean nan
field stddev nan
field sum 0
field sqrsum 0
field min nan
field max nan
statistic Basic.rack[15].node[0].app 	throughput
field count 99808
field mean 49904.5
field stddev 28812.232170845
field sum 4980868336
field sqrsum 3.314219982091e+014
field min 1
field max 99808
statistic Basic.rack[15].node[0].app 	"End-to-End Delay"
field count 99808
field mean 2.5831430501317e-005
field stddev 1.9408820570323e-005
field sum 2.5781834154755
field sqrsum 0.00010419569376263
field min 8.496e-007
field max 0.000211356297
statistic Basic.rack[15].node[0].app 	hops
field count 99808
field mean 4.9926458800898
field stddev 0.91621294022345
field sum 498306
field sqrsum 2571648
field min 3
field max 6
statistic Basic.rack[15].node[1].app 	throughput
field count 99931
field mean 49966
field stddev 28847.7392124
field sum 4993152346
field sqrsum 3.3264880244287e+014
field min 1
field max 99931
statistic Basic.rack[15].node[1].app 	"End-to-End Delay"
field count 99931
field mean 2.5881084019858e-005
field stddev 1.9394719826091e-005
field sum 2.5863226071885
field sqrsum 0.00010452601755136
field min 8.496e-007
field max 0.000194133546
statistic Basic.rack[15].node[1].app 	hops
field count 99931
field mean 4.9999799861905
field stddev 0.91181247029552
field sum 499653
field sqrsum 2581337
field min 3
field max 6
statistic Basic.rack[15].node[2].app 	throughput
field count 100100
field mean 50050.5
field stddev 28896.525310148
field sum 5010055050
field sqrsum 3.3433934368835e+014
field min 1
field max 100100
statistic Basic.rack[15].node[2].app 	"End-to-End Delay"
field count 100100
field mean 2.5895162352682e-005
field stddev 1.9487134775923e-005
field sum 2.5921057515035
field sqrsum 0.00010513543654176
field min 8.496e-007
field max 0.000209904983
statistic Basic.rack[15].node[2].app 	hops
field count 100100
field mean 4.9975224775225
field stddev 0.91321860865804
field sum 500252
field sqrsum 2583500
field min 3
field max 6
statistic Basic.rack[15].node[3].app 	throughput
field count 99868
field mean 49934.5
field stddev 28829.552678921
field sum 4986858646
field sqrsum 3.3202006179203e+014
field min 1
field max 99868
statistic Basic.rack[15].node[3].app 	"End-to-End Delay"
field count 99868
field mean 2.5908161534851e-005
field stddev 1.9354143097879e-005
field sum 2.5873962761625
field sqrsum 0.00010444314666309
field min 8.496e-007
field max 0.000203365555
statistic Basic.rack[15].node[3].app 	hops
field count 99868
field mean 5.0025733968839
field stddev 0.91284810581142
field sum 499597
field sqrsum 2582489
field min 3
field max 6
statistic Basic.rack[15].node[4].app 	throughput
field count 99674
field mean 49837.5
field stddev 28773.549702809
field sum 4967502975
field sqrsum 3.3008891685442e+014
field min 1
field max 99674
statistic Basic.rack[15].node[4].app 	"End-to-End Delay"
field count 99674
field mean 2.5841719949761e-005
field stddev 1.9397976069723e-005
field sum 2.5757475942725
field sqrsum 0.00010406685151009
field min 8.496e-007
field max 0.000213693281
statistic Basic.rack[15].node[4].app 	hops
field count 99674
field mean 4.9962377350162
field stddev 0.91351229983349
field sum 497995
field sqrsum 2571279
field min 3
field max 6
statistic Basic.rack[15].node[5].app 	throughput
field count 100461
field mean 50231
field stddev 29000.737033738
field sum 5046256491
field sqrsum 3.3796966431373e+014
field min 1
field max 100461
statistic Basic.rack[15].node[5].app 	"End-to-End Delay"
field count 100461
field mean 2.5753656624715e-005
field stddev 1.9304741342617e-005
field sum 2.5872380981755
field sqrsum 0.00010406957501495
field min 8.496e-007
field max 0.000234021671
statistic Basic.rack[15].node[5].app 	hops
field count 100461
field mean 4.9983476174834
field stddev 0.91199303346943
field sum 502139
field sqrsum 2593421
field min 3
field max 6
statistic Basic.rack[15].node[6].app 	throughput
field count 99677
field mean 49839
field stddev 28774.415728212
field sum 4967802003
field sqrsum 3.3011872276936e+014
field min 1
field max 99677
statistic Basic.rack[15].node[6].app 	"End-to-End Delay"
field count 99677
field mean 2.5904834144682e-005
field stddev 1.9360850002067e-005
field sum 2.5821161530395
field sqrsum 0.0001042520929929
field min 8.496e-007
field max 0.000210944496
statistic Basic.rack[15].node[6].app 	hops
field count 99677
field mean 5.0025682955948
field stddev 0.91240928043018
field sum 498641
field sqrsum 2577465
field min 3
field max 6
statistic Basic.rack[15].node[7].app 	throughput
field count 99987
field mean 49994
field stddev 28863.905019938
field sum 4998750078
field sqrsum 3.3320834894935e+014
field min 1
field max 99987
statistic Basic.rack[15].node[7].app 	"End-to-End Delay"
field count 99987
field mean 2.5863665935506e-005
field stddev 1.9350544246239e-005
field sum 2.5860303658935
field sqrsum 0.00010432333953523
field min 8.496e-007
field max 0.000197638042
statistic Basic.rack[15].node[7].app 	hops
field count 99987
field mean 5.0024103133407
field stddev 0.9121845659955
field sum 500176
field sqrsum 2585282
field min 3
field max 6
statistic Basic.rack[15].node[8].app 	throughput
field count 99895
field mean 49948
field stddev 28837.346907555
field sum 4989555460
field sqrsum 3.3228942496962e+014
field min 1
field max 99895
statistic Basic.rack[15].node[8].app 	"End-to-End Delay"
field count 99895
field mean 2.5783111265614e-005
field stddev 1.9404035888719e-005
field sum 2.5756038998785
field sqrsum 0.00010401883204326
field min 8.496e-007
field max 0.000225823135
statistic Basic.rack[15].node[8].app 	hops
field count 99895
field mean 4.9980079083037
field stddev 0.9146982611884
field sum 499276
field sqrsum 2578964
field min 3
field max 6
statistic Basic.rack[15].node[9].app 	throughput
field count 99783
field mean 49892
field stddev 28805.01529248
field sum 4978373436
field sqrsum 3.311730171674e+014
field min 1
field max 99783
statistic Basic.rack[15].node[9].app 	"End-to-End Delay"
field count 99783
field mean 2.583815138949e-005
field stddev 1.9292696553683e-005
field sum 2.5782082600975
field sqrsum 0.00010375580799469
field min 8.496e-007
field max 0.000218087607
statistic Basic.rack[15].node[9].app 	hops
field count 99783
field mean 5.0015633925619
field stddev 0.91032087333484
field sum 499071
field sqrsum 2578823
field min 3
field max 6
statistic Basic.rack[15].eps.queue[0] 	dropsum
field count 0
field mean nan
field stddev nan
field sum 0
field sqrsum 0
field min nan
field max nan
statistic Basic.rack[15].eps.queue[1] 	dropsum
field count 0
field mean nan
field stddev nan
field sum 0
field sqrsum 0
field min nan
field max nan
statistic Basic.rack[15].eps.queue[2] 	dropsum
field count 0
field mean nan
field stddev nan
field sum 0
field sqrsum 0
field min nan
field max nan
statistic Basic.rack[15].eps.queue[3] 	dropsum
field count 0
field mean nan
field stddev nan
field sum 0
field sqrsum 0
field min nan
field max nan
