version 2
run Basic-51-20180510-18:05:39-24184
attr configname Basic
attr datetime 20180510-18:05:39
attr experiment Basic
attr inifile omnetpp.ini
attr iterationvars "$0=exponential(0.08 ms), $1=4, $2=5"
attr iterationvarsf exponential(0.08_ms),4,5-
attr measurement "$0=exponential(0.08 ms), $1=4, $2=5"
attr network Networks.Basic
attr processid 24184
attr repetition 0
attr replication #0
attr resultdir results
attr runnumber 51
attr seedset 51
param **.frameCapacity 50
param **.packetLength "1024 bytes"
param **.pattern 4
param **.sendIaTime "exponential(0.08 ms)"
param **.tp 5

statistic Basic.rack[0].node[0].app 	throughput
field count 33948
field mean 16974.5
field stddev 9800.0878057291
field sum 576250326
field sqrsum 13041889461474
field min 1
field max 33948
statistic Basic.rack[0].node[0].app 	"End-to-End Delay"
field count 33948
field mean 0.00053146384689511
field stddev 0.00015266249642615
field sum 18.042134674395
field sqrsum 0.010379905576562
field min 7.2957221e-005
field max 0.000844908845
statistic Basic.rack[0].node[0].app 	hops
field count 33948
field mean 5.21338517733
field stddev 0.7684118837892
field sum 176984
field sqrsum 942730
field min 4
field max 6
statistic Basic.rack[0].node[1].app 	throughput
field count 33973
field mean 16987
field stddev 9807.3046840947
field sum 577099351
field sqrsum 13070723200799
field min 1
field max 33973
statistic Basic.rack[0].node[1].app 	"End-to-End Delay"
field count 33973
field mean 0.00053277154892773
field stddev 0.00015376181343071
field sum 18.099847831722
field sqrsum 0.010446273608358
field min 0.000253947943
field max 0.000845266922
statistic Basic.rack[0].node[1].app 	hops
field count 33973
field mean 5.2128454949519
field stddev 0.76724098274117
field sum 177096
field sqrsum 943172
field min 4
field max 6
statistic Basic.rack[0].node[2].app 	throughput
field count 33801
field mean 16901
field stddev 9757.652560939
field sum 571270701
field sqrsum 12873204399901
field min 1
field max 33801
statistic Basic.rack[0].node[2].app 	"End-to-End Delay"
field count 33801
field mean 0.00053089739429596
field stddev 0.00015230642654252
field sum 17.944862824598
field sqrsum 0.010310947882313
field min 0.000189871273
field max 0.000845343813
statistic Basic.rack[0].node[2].app 	hops
field count 33801
field mean 5.2104375610189
field stddev 0.76984893677771
field sum 176118
field sqrsum 937684
field min 4
field max 6
statistic Basic.rack[0].node[3].app 	throughput
field count 33920
field mean 16960.5
field stddev 9792.0049019596
field sum 575300160
field sqrsum 13009646051520
field min 1
field max 33920
statistic Basic.rack[0].node[3].app 	"End-to-End Delay"
field count 33920
field mean 0.00053182515083865
field stddev 0.00015303974068342
field sum 18.039509116447
field sqrsum 0.010388287058536
field min 0.000276855933
field max 0.000845325705
statistic Basic.rack[0].node[3].app 	hops
field count 33920
field mean 5.2142688679245
field stddev 0.76823899757965
field sum 176868
field sqrsum 942256
field min 4
field max 6
statistic Basic.rack[0].node[4].app 	throughput
field count 34067
field mean 17034
field stddev 9834.4401467496
field sum 580297278
field sqrsum 13179518345510
field min 1
field max 34067
statistic Basic.rack[0].node[4].app 	"End-to-End Delay"
field count 34067
field mean 0.0005327621570148
field stddev 0.00015336110008833
field sum 18.149608403023
field sqrsum 0.010470644135842
field min 0.000202948978
field max 0.00084529509
statistic Basic.rack[0].node[4].app 	hops
field count 34067
field mean 5.2149881116623
field stddev 0.7662489994861
field sum 177659
field sqrsum 946491
field min 4
field max 6
statistic Basic.rack[0].node[5].app 	throughput
field count 34215
field mean 17108
field stddev 9877.1640666742
field sum 585350220
field sqrsum 13352033634940
field min 1
field max 34215
statistic Basic.rack[0].node[5].app 	"End-to-End Delay"
field count 34215
field mean 0.00053224793944189
field stddev 0.00015299047588262
field sum 18.210863248004
field sqrsum 0.010493510255717
field min 0.000119741542
field max 0.000845263415
statistic Basic.rack[0].node[5].app 	hops
field count 34215
field mean 5.2142627502557
field stddev 0.76655249606925
field sum 178406
field sqrsum 950360
field min 4
field max 6
statistic Basic.rack[0].node[6].app 	throughput
field count 34052
field mean 17026.5
field stddev 9830.1100197302
field sum 579786378
field sqrsum 13162117091230
field min 1
field max 34052
statistic Basic.rack[0].node[6].app 	"End-to-End Delay"
field count 34052
field mean 0.0005334371061799
field stddev 0.00015372003761708
field sum 18.164600339638
field sqrsum 0.010494291861249
field min 0.000178887227
field max 0.000845315173
statistic Basic.rack[0].node[6].app 	hops
field count 34052
field mean 5.2106190532127
field stddev 0.76630304081828
field sum 177432
field sqrsum 944526
field min 4
field max 6
statistic Basic.rack[0].node[7].app 	throughput
field count 34055
field mean 17028
field stddev 9830.9760451341
field sum 579888540
field sqrsum 13165596115980
field min 1
field max 34055
statistic Basic.rack[0].node[7].app 	"End-to-End Delay"
field count 34055
field mean 0.00053121497796089
field stddev 0.00015270019356487
field sum 18.090526074458
field sqrsum 0.010404007416698
field min 0.000151891157
field max 0.000845219034
statistic Basic.rack[0].node[7].app 	hops
field count 34055
field mean 5.2101893995008
field stddev 0.7703974264636
field sum 177433
field sqrsum 944671
field min 4
field max 6
statistic Basic.rack[0].node[8].app 	throughput
field count 33946
field mean 16973.5
field stddev 9799.5104554598
field sum 576182431
field sqrsum 13039584595961
field min 1
field max 33946
statistic Basic.rack[0].node[8].app 	"End-to-End Delay"
field count 33946
field mean 0.00053076719381164
field stddev 0.00015270565401034
field sum 18.01742316113
field sqrsum 0.010354621155096
field min 2.3781398e-005
field max 0.000845334585
statistic Basic.rack[0].node[8].app 	hops
field count 33946
field mean 5.2121899487421
field stddev 0.770164597421
field sum 176933
field sqrsum 942343
field min 4
field max 6
statistic Basic.rack[0].node[9].app 	throughput
field count 34218
field mean 17109.5
field stddev 9878.0300920781
field sum 585452871
field sqrsum 13355546044209
field min 1
field max 34218
statistic Basic.rack[0].node[9].app 	"End-to-End Delay"
field count 34218
field mean 0.00053194966135405
field stddev 0.00015331977274546
field sum 18.202253512213
field sqrsum 0.010487019992742
field min 0.000406408449
field max 0.000845236328
statistic Basic.rack[0].node[9].app 	hops
field count 34218
field mean 5.2128704190777
field stddev 0.76905420217535
field sum 178374
field sqrsum 950078
field min 4
field max 6
statistic Basic.rack[0].eps.queue[0] 	dropsum
field count 0
field mean nan
field stddev nan
field sum 0
field sqrsum 0
field min nan
field max nan
statistic Basic.rack[0].eps.queue[1] 	dropsum
field count 0
field mean nan
field stddev nan
field sum 0
field sqrsum 0
field min nan
field max nan
statistic Basic.rack[0].eps.queue[2] 	dropsum
field count 0
field mean nan
field stddev nan
field sum 0
field sqrsum 0
field min nan
field max nan
statistic Basic.rack[0].eps.queue[3] 	dropsum
field count 0
field mean nan
field stddev nan
field sum 0
field sqrsum 0
field min nan
field max nan
statistic Basic.rack[1].node[0].app 	throughput
field count 58090
field mean 29045.5
field stddev 16769.282905559
field sum 1687253095
field sqrsum 65342250610065
field min 1
field max 58090
statistic Basic.rack[1].node[0].app 	"End-to-End Delay"
field count 58090
field mean 0.00026919485097384
field stddev 0.00028687840673594
field sum 15.637528893071
field sqrsum 0.0089902216651499
field min 1.80336e-005
field max 0.000836998243
statistic Basic.rack[1].node[0].app 	hops
field count 58090
field mean 5.9999827853331
field stddev 0.49863384749373
field sum 348539
field sqrsum 2105671
field min 5
field max 7
statistic Basic.rack[1].node[1].app 	throughput
field count 57937
field mean 28969
field stddev 16725.115609964
field sum 1678376953
field sqrsum 64827309809625
field min 1
field max 57937
statistic Basic.rack[1].node[1].app 	"End-to-End Delay"
field count 57937
field mean 0.0002678112869867
field stddev 0.00028676882447819
field sum 15.516182534148
field sqrsum 0.0089198544908054
field min 1.80336e-005
field max 0.000837195735
statistic Basic.rack[1].node[1].app 	hops
field count 57937
field mean 6.0003106822928
field stddev 0.49691804935221
field sum 347640
field sqrsum 2100254
field min 5
field max 7
statistic Basic.rack[1].node[2].app 	throughput
field count 58511
field mean 29256
field stddev 16890.815137228
field sum 1711797816
field sqrsum 66773238607256
field min 1
field max 58511
statistic Basic.rack[1].node[2].app 	"End-to-End Delay"
field count 58511
field mean 0.00026832121607041
field stddev 0.00028623572815039
field sum 15.699742673496
field sqrsum 0.0090063505411479
field min 1.80336e-005
field max 0.000836910783
statistic Basic.rack[1].node[2].app 	hops
field count 58511
field mean 6.0016407171301
field stddev 0.49962971233424
field sum 351162
field sqrsum 2122154
field min 5
field max 7
statistic Basic.rack[1].node[3].app 	throughput
field count 58323
field mean 29162
field stddev 16836.544211922
field sum 1700815326
field sqrsum 66131668443974
field min 1
field max 58323
statistic Basic.rack[1].node[3].app 	"End-to-End Delay"
field count 58323
field mean 0.00026878660440508
field stddev 0.00028678870130326
field sum 15.676441128718
field sqrsum 0.0090104711919273
field min 1.80336e-005
field max 0.000837174145
statistic Basic.rack[1].node[3].app 	hops
field count 58323
field mean 5.9966736964834
field stddev 0.49836595059372
field sum 349744
field sqrsum 2111786
field min 5
field max 7
statistic Basic.rack[1].node[4].app 	throughput
field count 57797
field mean 28899
field stddev 16684.701091119
field sum 1670275503
field sqrsum 64358498923095
field min 1
field max 57797
statistic Basic.rack[1].node[4].app 	"End-to-End Delay"
field count 57797
field mean 0.00026716319881889
field stddev 0.0002864450252117
field sum 15.441231402136
field sqrsum 0.0088675340647684
field min 1.80336e-005
field max 0.000836844283
statistic Basic.rack[1].node[4].app 	hops
field count 57797
field mean 6.0014187587591
field stddev 0.49716971218146
field sum 346864
field sqrsum 2095962
field min 5
field max 7
statistic Basic.rack[1].node[5].app 	throughput
field count 58052
field mean 29026.5
field stddev 16758.313250444
field sum 1685046378
field sqrsum 65214103239230
field min 1
field max 58052
statistic Basic.rack[1].node[5].app 	"End-to-End Delay"
field count 58052
field mean 0.00026714798537863
field stddev 0.0002860740735968
field sum 15.5084748472
field sqrsum 0.0088938573527671
field min 1.80336e-005
field max 0.000836967796
statistic Basic.rack[1].node[5].app 	hops
field count 58052
field mean 6.001171363605
field stddev 0.50105262657746
field sum 348380
field sqrsum 2105262
field min 5
field max 7
statistic Basic.rack[1].node[6].app 	throughput
field count 58222
field mean 29111.5
field stddev 16807.388023327
field sum 1694929753
field sqrsum 65788698362695
field min 1
field max 58222
statistic Basic.rack[1].node[6].app 	"End-to-End Delay"
field count 58222
field mean 0.00026697806518272
field stddev 0.00028660514055785
field sum 15.543996911069
field sqrsum 0.0089323250969433
field min 1.80336e-005
field max 0.000837132188
statistic Basic.rack[1].node[6].app 	hops
field count 58222
field mean 5.9992099206486
field stddev 0.49635769350359
field sum 349286
field sqrsum 2109784
field min 5
field max 7
statistic Basic.rack[1].node[7].app 	throughput
field count 58491
field mean 29246
field stddev 16885.041634536
field sum 1710627786
field sqrsum 66704790096546
field min 1
field max 58491
statistic Basic.rack[1].node[7].app 	"End-to-End Delay"
field count 58491
field mean 0.00026736531600935
field stddev 0.00028672889203381
field sum 15.638464698703
field sqrsum 0.0089898481868202
field min 1.80336e-005
field max 0.000837156113
statistic Basic.rack[1].node[7].app 	hops
field count 58491
field mean 6.0043938383683
field stddev 0.49579994861848
field sum 351203
field sqrsum 2123139
field min 5
field max 7
statistic Basic.rack[1].node[8].app 	throughput
field count 57783
field mean 28892
field stddev 16680.659639235
field sum 1669466436
field sqrsum 64311742536404
field min 1
field max 57783
statistic Basic.rack[1].node[8].app 	"End-to-End Delay"
field count 57783
field mean 0.00026653331001091
field stddev 0.00028643525558262
field sum 15.40109425236
field sqrsum 0.0088456378121015
field min 1.80336e-005
field max 0.000836715549
statistic Basic.rack[1].node[8].app 	hops
field count 57783
field mean 6.0010902860703
field stddev 0.49578422984295
field sum 346761
field sqrsum 2095147
field min 5
field max 7
statistic Basic.rack[1].node[9].app 	throughput
field count 58066
field mean 29033.5
field stddev 16762.354702328
field sum 1685859211
field sqrsum 65261295917021
field min 1
field max 58066
statistic Basic.rack[1].node[9].app 	"End-to-End Delay"
field count 58066
field mean 0.000267889683328
field stddev 0.00028571003921574
field sum 15.555282352124
field sqrsum 0.0089069587656135
field min 1.80336e-005
field max 0.000837065025
statistic Basic.rack[1].node[9].app 	hops
field count 58066
field mean 6.0042021148348
field stddev 0.50083843736516
field sum 348640
field sqrsum 2107870
field min 5
field max 7
statistic Basic.rack[1].eps.queue[0] 	dropsum
field count 0
field mean nan
field stddev nan
field sum 0
field sqrsum 0
field min nan
field max nan
statistic Basic.rack[1].eps.queue[1] 	dropsum
field count 31509
field mean 15755
field stddev 9096.0091523701
field sum 496424295
field sqrsum 10428054215535
field min 1
field max 31509
statistic Basic.rack[1].eps.queue[2] 	dropsum
field count 0
field mean nan
field stddev nan
field sum 0
field sqrsum 0
field min nan
field max nan
statistic Basic.rack[1].eps.queue[3] 	dropsum
field count 0
field mean nan
field stddev nan
field sum 0
field sqrsum 0
field min nan
field max nan
statistic Basic.rack[2].node[0].app 	throughput
field count 58020
field mean 29010.5
field stddev 16749.075646136
field sum 1683189210
field sqrsum 65106319705870
field min 1
field max 58020
statistic Basic.rack[2].node[0].app 	"End-to-End Delay"
field count 58020
field mean 0.00026708177213515
field stddev 0.00028596800689348
field sum 15.496084419282
field sqrsum 0.0088833821202406
field min 1.80336e-005
field max 0.000837095889
statistic Basic.rack[2].node[0].app 	hops
field count 58020
field mean 6.0030162013099
field stddev 0.49733379978176
field sum 348295
field sqrsum 2105171
field min 5
field max 7
statistic Basic.rack[2].node[1].app 	throughput
field count 58180
field mean 29090.5
field stddev 16795.263667673
field sum 1692485290
field sqrsum 65646426943230
field min 1
field max 58180
statistic Basic.rack[2].node[1].app 	"End-to-End Delay"
field count 58180
field mean 0.000266553350798
field stddev 0.00028590507920322
field sum 15.508073949428
field sqrsum 0.0088893802727287
field min 1.80336e-005
field max 0.00083718267
statistic Basic.rack[2].node[1].app 	hops
field count 58180
field mean 6.0023375730492
field stddev 0.49694717815716
field sum 349216
field sqrsum 2110480
field min 5
field max 7
statistic Basic.rack[2].node[2].app 	throughput
field count 58362
field mean 29181.5
field stddev 16847.802542171
field sum 1703090703
field sqrsum 66264420769225
field min 1
field max 58362
statistic Basic.rack[2].node[2].app 	"End-to-End Delay"
field count 58362
field mean 0.00027069008119152
field stddev 0.00028724374215562
field sum 15.7980145185
field sqrsum 0.0090916716795503
field min 1.80336e-005
field max 0.000837143017
statistic Basic.rack[2].node[2].app 	hops
field count 58362
field mean 6.0016106370584
field stddev 0.49807030860924
field sum 350266
field sqrsum 2116638
field min 5
field max 7
statistic Basic.rack[2].node[3].app 	throughput
field count 58152
field mean 29076.5
field stddev 16787.180763904
field sum 1690856628
field sqrsum 65551693373180
field min 1
field max 58152
statistic Basic.rack[2].node[3].app 	"End-to-End Delay"
field count 58152
field mean 0.00026789159736803
field stddev 0.00028595394219087
field sum 15.578432170146
field sqrsum 0.008928318405926
field min 1.80336e-005
field max 0.000837177164
statistic Basic.rack[2].node[3].app 	hops
field count 58152
field mean 5.9954773696519
field stddev 0.49862341753846
field sum 348649
field sqrsum 2104775
field min 5
field max 7
statistic Basic.rack[2].node[4].app 	throughput
field count 58318
field mean 29159.5
field stddev 16835.100836249
field sum 1700523721
field sqrsum 66114661748759
field min 1
field max 58318
statistic Basic.rack[2].node[4].app 	"End-to-End Delay"
field count 58318
field mean 0.00026941133508297
field stddev 0.00028628019586136
field sum 15.711530239368
field sqrsum 0.009012312832567
field min 1.80336e-005
field max 0.000837154873
statistic Basic.rack[2].node[4].app 	hops
field count 58318
field mean 5.9992798106931
field stddev 0.49925729347591
field sum 349866
field sqrsum 2113480
field min 5
field max 7
statistic Basic.rack[2].node[5].app 	throughput
field count 58232
field mean 29116.5
field stddev 16810.274774673
field sum 1695512028
field sqrsum 65822602780340
field min 1
field max 58232
statistic Basic.rack[2].node[5].app 	"End-to-End Delay"
field count 58232
field mean 0.00026840953271345
field stddev 0.00028565736301383
field sum 15.630023908969
field sqrsum 0.0089469045280687
field min 1.80336e-005
field max 0.000837119952
statistic Basic.rack[2].node[5].app 	hops
field count 58232
field mean 6.0008242890507
field stddev 0.50044990893373
field sum 349440
field sqrsum 2111512
field min 5
field max 7
statistic Basic.rack[2].node[6].app 	throughput
field count 58001
field mean 29001
field stddev 16743.590818579
field sum 1682087001
field sqrsum 65042379459001
field min 1
field max 58001
statistic Basic.rack[2].node[6].app 	"End-to-End Delay"
field count 58001
field mean 0.00026806078096144
field stddev 0.00028617797158329
field sum 15.547793356545
field sqrsum 0.0089178278517149
field min 1.80336e-005
field max 0.00083713136
statistic Basic.rack[2].node[6].app 	hops
field count 58001
field mean 5.9998620713436
field stddev 0.49816904236259
field sum 347998
field sqrsum 2102334
field min 5
field max 7
statistic Basic.rack[2].node[7].app 	throughput
field count 58413
field mean 29207
field stddev 16862.524974036
field sum 1706068491
field sqrsum 66438287866019
field min 1
field max 58413
statistic Basic.rack[2].node[7].app 	"End-to-End Delay"
field count 58413
field mean 0.0002684695150502
field stddev 0.00028573715913875
field sum 15.682109782628
field sqrsum 0.0089792584451762
field min 1.80336e-005
field max 0.000837182433
statistic Basic.rack[2].node[7].app 	hops
field count 58413
field mean 5.9989385924366
field stddev 0.50005023018136
field sum 350416
field sqrsum 2116730
field min 5
field max 7
statistic Basic.rack[2].node[8].app 	throughput
field count 57749
field mean 28875
field stddev 16670.844684658
field sum 1667502375
field sqrsum 64198285603375
field min 1
field max 57749
statistic Basic.rack[2].node[8].app 	"End-to-End Delay"
field count 57749
field mean 0.00026680430141884
field stddev 0.00028690134571274
field sum 15.407681602636
field sqrsum 0.0088642111721314
field min 1.80336e-005
field max 0.000837149937
statistic Basic.rack[2].node[8].app 	hops
field count 57749
field mean 6.000311693709
field stddev 0.49272596191558
field sum 346512
field sqrsum 2093200
field min 5
field max 7
statistic Basic.rack[2].node[9].app 	throughput
field count 58220
field mean 29110.5
field stddev 16806.810673058
field sum 1694813310
field sqrsum 65781918876570
field min 1
field max 58220
statistic Basic.rack[2].node[9].app 	"End-to-End Delay"
field count 58220
field mean 0.00026782409923706
field stddev 0.00028539998781853
field sum 15.592719057581
field sqrsum 0.0089182270534858
field min 1.80336e-005
field max 0.000837078798
statistic Basic.rack[2].node[9].app 	hops
field count 58220
field mean 6.0012195121951
field stddev 0.49979664726537
field sum 349391
field sqrsum 2111315
field min 5
field max 7
statistic Basic.rack[2].eps.queue[0] 	dropsum
field count 0
field mean nan
field stddev nan
field sum 0
field sqrsum 0
field min nan
field max nan
statistic Basic.rack[2].eps.queue[1] 	dropsum
field count 3743837
field mean 1871919
field stddev 1080752.7942169
field sum 7008159613203
field sqrsum 1.749160717729e+019
field min 1
field max 3743837
statistic Basic.rack[2].eps.queue[2] 	dropsum
field count 0
field mean nan
field stddev nan
field sum 0
field sqrsum 0
field min nan
field max nan
statistic Basic.rack[2].eps.queue[3] 	dropsum
field count 0
field mean nan
field stddev nan
field sum 0
field sqrsum 0
field min nan
field max nan
statistic Basic.rack[3].node[0].app 	throughput
field count 30812
field mean 15406.5
field stddev 8894.8025835316
field sum 474705078
field sqrsum 9751233477250
field min 1
field max 30812
statistic Basic.rack[3].node[0].app 	"End-to-End Delay"
field count 30812
field mean 0.00049046193314945
field stddev 0.00013448968930345
field sum 15.112113084201
field sqrsum 0.0079692094365835
field min 3.7017979e-005
field max 0.000836282175
statistic Basic.rack[3].node[0].app 	hops
field count 30812
field mean 4.250551733091
field stddev 0.82060188076104
field sum 130968
field sqrsum 577434
field min 3
field max 5
statistic Basic.rack[3].node[1].app 	throughput
field count 30521
field mean 15261
field stddev 8810.7981193533
field sum 465780981
field sqrsum 9477556141061
field min 1
field max 30521
statistic Basic.rack[3].node[1].app 	"End-to-End Delay"
field count 30521
field mean 0.0004905909371825
field stddev 0.00013448530047151
field sum 14.973325993747
field sqrsum 0.007897771787241
field min 0.000105785445
field max 0.0008362699
statistic Basic.rack[3].node[1].app 	hops
field count 30521
field mean 4.2373447790046
field stddev 0.82388720019183
field sum 129328
field sqrsum 568724
field min 3
field max 5
statistic Basic.rack[3].node[2].app 	throughput
field count 30311
field mean 15156
field stddev 8750.1763410802
field sum 459393516
field sqrsum 9283271040156
field min 1
field max 30311
statistic Basic.rack[3].node[2].app 	"End-to-End Delay"
field count 30311
field mean 0.00049066683063159
field stddev 0.00013501282519634
field sum 14.872602303274
field sqrsum 0.0078499973479363
field min 0.000221197853
field max 0.000836116412
statistic Basic.rack[3].node[2].app 	hops
field count 30311
field mean 4.2510639701758
field stddev 0.82102452245865
field sum 128854
field sqrsum 568198
field min 3
field max 5
statistic Basic.rack[3].node[3].app 	throughput
field count 30328
field mean 15164.5
field stddev 8755.083818369
field sum 459908956
field sqrsum 9298899181364
field min 1
field max 30328
statistic Basic.rack[3].node[3].app 	"End-to-End Delay"
field count 30328
field mean 0.00049121101287922
field stddev 0.00013516152786242
field sum 14.897447598601
field sqrsum 0.0078718233274739
field min 2.1958048e-005
field max 0.000836031164
statistic Basic.rack[3].node[3].app 	hops
field count 30328
field mean 4.2464059614877
field stddev 0.82043685740197
field sum 128785
field sqrsum 567287
field min 3
field max 5
statistic Basic.rack[3].node[4].app 	throughput
field count 30525
field mean 15263
field stddev 8811.9528198919
field sum 465903075
field sqrsum 9481282877275
field min 1
field max 30525
statistic Basic.rack[3].node[4].app 	"End-to-End Delay"
field count 30525
field mean 0.00049112642782159
field stddev 0.0001356578324759
field sum 14.991634209254
field sqrsum 0.0079245223786569
field min 0.000272817687
field max 0.000836429612
statistic Basic.rack[3].node[4].app 	hops
field count 30525
field mean 4.2514004914005
field stddev 0.82056743036587
field sum 129774
field sqrsum 572274
field min 3
field max 5
statistic Basic.rack[3].node[5].app 	throughput
field count 30730
field mean 15365.5
field stddev 8871.1312224917
field sum 472181815
field sqrsum 9673588843905
field min 1
field max 30730
statistic Basic.rack[3].node[5].app 	"End-to-End Delay"
field count 30730
field mean 0.0004904716397959
field stddev 0.0001346426055446
field sum 15.072193490928
field sqrsum 0.0079495581658169
field min 0.000171051805
field max 0.000836178392
statistic Basic.rack[3].node[5].app 	hops
field count 30730
field mean 4.244386592906
field stddev 0.82274321477065
field sum 130430
field sqrsum 574396
field min 3
field max 5
statistic Basic.rack[3].node[6].app 	throughput
field count 30353
field mean 15177
field stddev 8762.3006967348
field sum 460667481
field sqrsum 9321913589689
field min 1
field max 30353
statistic Basic.rack[3].node[6].app 	"End-to-End Delay"
field count 30353
field mean 0.00049142727622667
field stddev 0.0001351451736777
field sum 14.916292115308
field sqrsum 0.0078846283494033
field min 0.000201848825
field max 0.000836215766
statistic Basic.rack[3].node[6].app 	hops
field count 30353
field mean 4.249266958785
field stddev 0.81894183459347
field sum 128978
field sqrsum 568418
field min 3
field max 5
statistic Basic.rack[3].node[7].app 	throughput
field count 30538
field mean 15269.5
field stddev 8815.7055966421
field sum 466299991
field sqrsum 9493401516769
field min 1
field max 30538
statistic Basic.rack[3].node[7].app 	"End-to-End Delay"
field count 30538
field mean 0.00048994673916874
field stddev 0.0001337351058496
field sum 14.961993520735
field sqrsum 0.0078767365802203
field min 0.000409211349
field max 0.000836418317
statistic Basic.rack[3].node[7].app 	hops
field count 30538
field mean 4.2512279782566
field stddev 0.82030944521328
field sum 129824
field sqrsum 572460
field min 3
field max 5
statistic Basic.rack[3].node[8].app 	throughput
field count 30579
field mean 15290
field stddev 8827.5412771621
field sum 467552910
field sqrsum 9531689474230
field min 1
field max 30579
statistic Basic.rack[3].node[8].app 	"End-to-End Delay"
field count 30579
field mean 0.00048908097840639
field stddev 0.00013344696892419
field sum 14.955607238689
field sqrsum 0.007859038904463
field min 8.0515444e-005
field max 0.000836087426
statistic Basic.rack[3].node[8].app 	hops
field count 30579
field mean 4.2419961411426
field stddev 0.82577415491164
field sum 129716
field sqrsum 571106
field min 3
field max 5
statistic Basic.rack[3].node[9].app 	throughput
field count 30342
field mean 15171.5
field stddev 8759.1252702539
field sum 460333653
field sqrsum 9311782577435
field min 1
field max 30342
statistic Basic.rack[3].node[9].app 	"End-to-End Delay"
field count 30342
field mean 0.00049014939116551
field stddev 0.00013415307221458
field sum 14.872112826744
field sqrsum 0.0078356054438652
field min 0.000185729126
field max 0.000836500052
statistic Basic.rack[3].node[9].app 	hops
field count 30342
field mean 4.2519939357986
field stddev 0.82032080161153
field sum 129014
field sqrsum 568984
field min 3
field max 5
statistic Basic.rack[3].eps.queue[0] 	dropsum
field count 0
field mean nan
field stddev nan
field sum 0
field sqrsum 0
field min nan
field max nan
statistic Basic.rack[3].eps.queue[1] 	dropsum
field count 0
field mean nan
field stddev nan
field sum 0
field sqrsum 0
field min nan
field max nan
statistic Basic.rack[3].eps.queue[2] 	dropsum
field count 0
field mean nan
field stddev nan
field sum 0
field sqrsum 0
field min nan
field max nan
statistic Basic.rack[3].eps.queue[3] 	dropsum
field count 0
field mean nan
field stddev nan
field sum 0
field sqrsum 0
field min nan
field max nan
statistic Basic.rack[4].node[0].app 	throughput
field count 30337
field mean 15169
field stddev 8757.6818945807
field sum 460181953
field sqrsum 9307179999425
field min 1
field max 30337
statistic Basic.rack[4].node[0].app 	"End-to-End Delay"
field count 30337
field mean 0.00049871377454745
field stddev 0.00013442212372919
field sum 15.129479778446
field sqrsum 0.0080934304749529
field min 3.8415433e-005
field max 0.000844674375
statistic Basic.rack[4].node[0].app 	hops
field count 30337
field mean 5.2462339717177
field stddev 0.82310372609441
field sum 159155
field sqrsum 855517
field min 4
field max 6
statistic Basic.rack[4].node[1].app 	throughput
field count 30663
field mean 15332
field stddev 8851.7899884713
field sum 470125116
field sqrsum 9610454329644
field min 1
field max 30663
statistic Basic.rack[4].node[1].app 	"End-to-End Delay"
field count 30663
field mean 0.00049856851349314
field stddev 0.00013395444409868
field sum 15.28760632924
field sqrsum 0.0081721117462791
field min 0.000128153779
field max 0.000845138207
statistic Basic.rack[4].node[1].app 	hops
field count 30663
field mean 5.2518670710628
field stddev 0.82005372745624
field sum 161038
field sqrsum 866370
field min 4
field max 6
statistic Basic.rack[4].node[2].app 	throughput
field count 30472
field mean 15236.5
field stddev 8796.6530377563
field sum 464286628
field sqrsum 9431982847820
field min 1
field max 30472
statistic Basic.rack[4].node[2].app 	"End-to-End Delay"
field count 30472
field mean 0.00049866238019191
field stddev 0.00013419661480893
field sum 15.195240049208
field sqrsum 0.0081260386258126
field min 0.000353539581
field max 0.00084475043
statistic Basic.rack[4].node[2].app 	hops
field count 30472
field mean 5.2491795746915
field stddev 0.82172471963684
field sum 159953
field sqrsum 860197
field min 4
field max 6
statistic Basic.rack[4].node[3].app 	throughput
field count 30560
field mean 15280.5
field stddev 8822.056449604
field sum 466972080
field sqrsum 9513933500560
field min 1
field max 30560
statistic Basic.rack[4].node[3].app 	"End-to-End Delay"
field count 30560
field mean 0.00049781171374218
field stddev 0.00013361123957137
field sum 15.213125971961
field sqrsum 0.0081188104591785
field min 0.000419243911
field max 0.000845035309
statistic Basic.rack[4].node[3].app 	hops
field count 30560
field mean 5.2563481675393
field stddev 0.82155283718419
field sum 160634
field sqrsum 864974
field min 4
field max 6
statistic Basic.rack[4].node[4].app 	throughput
field count 30346
field mean 15173.5
field stddev 8760.2799707924
field sum 460455031
field sqrsum 9315465732161
field min 1
field max 30346
statistic Basic.rack[4].node[4].app 	"End-to-End Delay"
field count 30346
field mean 0.00049851980476162
field stddev 0.00013406766389854
field sum 15.128081995296
field sqrsum 0.0080870737155927
field min 0.00016415659
field max 0.000844967769
statistic Basic.rack[4].node[4].app 	hops
field count 30346
field mean 5.2507414486258
field stddev 0.82070560925582
field sum 159339
field sqrsum 857087
field min 4
field max 6
statistic Basic.rack[4].node[5].app 	throughput
field count 30828
field mean 15414.5
field stddev 8899.4213856857
field sum 475198206
field sqrsum 9766431929114
field min 1
field max 30828
statistic Basic.rack[4].node[5].app 	"End-to-End Delay"
field count 30828
field mean 0.00049940333315132
field stddev 0.00013517351597903
field sum 15.395605954389
field sqrsum 0.0082518841564522
field min 0.000331179329
field max 0.00084484646
statistic Basic.rack[4].node[5].app 	hops
field count 30828
field mean 5.2543142597639
field stddev 0.81960631252101
field sum 161980
field sqrsum 871802
field min 4
field max 6
statistic Basic.rack[4].node[6].app 	throughput
field count 30652
field mean 15326.5
field stddev 8848.6145619903
field sum 469787878
field sqrsum 9600115286930
field min 1
field max 30652
statistic Basic.rack[4].node[6].app 	"End-to-End Delay"
field count 30652
field mean 0.00049876117005279
field stddev 0.00013486256472794
field sum 15.288027384458
field sqrsum 0.0081825520973199
field min 2.4508676e-005
field max 0.000844613908
statistic Basic.rack[4].node[6].app 	hops
field count 30652
field mean 5.2501631214929
field stddev 0.82254276123215
field sum 160928
field sqrsum 865636
field min 4
field max 6
statistic Basic.rack[4].node[7].app 	throughput
field count 30293
field mean 15147
field stddev 8744.9801886568
field sum 458848071
field sqrsum 9266742692559
field min 1
field max 30293
statistic Basic.rack[4].node[7].app 	"End-to-End Delay"
field count 30293
field mean 0.00049814816214855
field stddev 0.00013386809578568
field sum 15.090402275966
field sqrsum 0.0080601090067175
field min 0.000158648922
field max 0.000844918904
statistic Basic.rack[4].node[7].app 	hops
field count 30293
field mean 5.2507509985805
field stddev 0.82190914540354
field sum 159061
field sqrsum 855653
field min 4
field max 6
statistic Basic.rack[4].node[8].app 	throughput
field count 30880
field mean 15440.5
field stddev 8914.4324926866
field sum 476802640
field sqrsum 9815935949680
field min 1
field max 30880
statistic Basic.rack[4].node[8].app 	"End-to-End Delay"
field count 30880
field mean 0.00049826335049812
field stddev 0.00013415238004324
field sum 15.386372263382
field sqrsum 0.0082221904689838
field min 0.000122834184
field max 0.000844810563
statistic Basic.rack[4].node[8].app 	hops
field count 30880
field mean 5.2511981865285
field stddev 0.82302387436719
field sum 162157
field sqrsum 872435
field min 4
field max 6
statistic Basic.rack[4].node[9].app 	throughput
field count 30543
field mean 15272
field stddev 8817.1489723153
field sum 466452696
field sqrsum 9498065280184
field min 1
field max 30543
statistic Basic.rack[4].node[9].app 	"End-to-End Delay"
field count 30543
field mean 0.00049929754410451
field stddev 0.00013505930785239
field sum 15.250044889584
field sqrsum 0.0081714270909974
field min 0.000257793024
field max 0.000844796708
statistic Basic.rack[4].node[9].app 	hops
field count 30543
field mean 5.2564581082408
field stddev 0.81819567548751
field sum 160548
field sqrsum 864360
field min 4
field max 6
statistic Basic.rack[4].eps.queue[0] 	dropsum
field count 0
field mean nan
field stddev nan
field sum 0
field sqrsum 0
field min nan
field max nan
statistic Basic.rack[4].eps.queue[1] 	dropsum
field count 0
field mean nan
field stddev nan
field sum 0
field sqrsum 0
field min nan
field max nan
statistic Basic.rack[4].eps.queue[2] 	dropsum
field count 0
field mean nan
field stddev nan
field sum 0
field sqrsum 0
field min nan
field max nan
statistic Basic.rack[4].eps.queue[3] 	dropsum
field count 0
field mean nan
field stddev nan
field sum 0
field sqrsum 0
field min nan
field max nan
statistic Basic.rack[5].node[0].app 	throughput
field count 30544
field mean 15272.5
field stddev 8817.4376474499
field sum 466483240
field sqrsum 9498998216120
field min 1
field max 30544
statistic Basic.rack[5].node[0].app 	"End-to-End Delay"
field count 30544
field mean 0.00049107282935287
field stddev 0.00013482735594544
field sum 14.999328499754
field sqrsum 0.0079209860419442
field min 0.000359821145
field max 0.00083631977
statistic Basic.rack[5].node[0].app 	hops
field count 30544
field mean 6.2524554740702
field stddev 0.8197444755057
field sum 190975
field sqrsum 1214587
field min 5
field max 7
statistic Basic.rack[5].node[1].app 	throughput
field count 30570
field mean 15285.5
field stddev 8824.9432009504
field sum 467277735
field sqrsum 9523275998545
field min 1
field max 30570
statistic Basic.rack[5].node[1].app 	"End-to-End Delay"
field count 30570
field mean 0.00049110906715509
field stddev 0.00013497569656517
field sum 15.013204182931
field sqrsum 0.0079300401527852
field min 6.4953865e-005
field max 0.000836643289
statistic Basic.rack[5].node[1].app 	hops
field count 30570
field mean 6.2509649983644
field stddev 0.81992022721122
field sum 191092
field sqrsum 1215060
field min 5
field max 7
statistic Basic.rack[5].node[2].app 	throughput
field count 30737
field mean 15369
field stddev 8873.1519484341
field sum 472396953
field sqrsum 9680200895225
field min 1
field max 30737
statistic Basic.rack[5].node[2].app 	"End-to-End Delay"
field count 30737
field mean 0.00048879426760484
field stddev 0.00013331637386942
field sum 15.02406940337
field sqrsum 0.0078899577827938
field min 0.000163166984
field max 0.000836749865
statistic Basic.rack[5].node[2].app 	hops
field count 30737
field mean 6.252301786121
field stddev 0.82513229202585
field sum 192177
field sqrsum 1222475
field min 5
field max 7
statistic Basic.rack[5].node[3].app 	throughput
field count 30655
field mean 15328
field stddev 8849.4805873942
field sum 469879840
field sqrsum 9602934290080
field min 1
field max 30655
statistic Basic.rack[5].node[3].app 	"End-to-End Delay"
field count 30655
field mean 0.00049153100412025
field stddev 0.00013490475434376
field sum 15.067882931306
field sqrsum 0.0079642127469826
field min 0.000143311961
field max 0.00083643735
statistic Basic.rack[5].node[3].app 	hops
field count 30655
field mean 6.2495188386886
field stddev 0.81913786006131
field sum 191579
field sqrsum 1217845
field min 5
field max 7
statistic Basic.rack[5].node[4].app 	throughput
field count 30434
field mean 15217.5
field stddev 8785.6833826402
field sum 463129395
field sqrsum 9396741048085
field min 1
field max 30434
statistic Basic.rack[5].node[4].app 	"End-to-End Delay"
field count 30434
field mean 0.00049140778003512
field stddev 0.00013500922211007
field sum 14.955504377589
field sqrsum 0.0079039684103333
field min 9.8912e-006
field max 0.000836778188
statistic Basic.rack[5].node[4].app 	hops
field count 30434
field mean 6.2375961096142
field stddev 0.82315547846107
field sum 189835
field sqrsum 1204735
field min 5
field max 7
statistic Basic.rack[5].node[5].app 	throughput
field count 30415
field mean 15208
field stddev 8780.1985550822
field sum 462551320
field sqrsum 9379153115640
field min 1
field max 30415
statistic Basic.rack[5].node[5].app 	"End-to-End Delay"
field count 30415
field mean 0.00049067989174296
field stddev 0.00013430443813139
field sum 14.924028907362
field sqrsum 0.0078715189520771
field min 8.6249572e-005
field max 0.00083666804
statistic Basic.rack[5].node[5].app 	hops
field count 30415
field mean 6.2553674173927
field stddev 0.81934189680002
field sum 190257
field sqrsum 1210545
field min 5
field max 7
statistic Basic.rack[5].node[6].app 	throughput
field count 30415
field mean 15208
field stddev 8780.1985550822
field sum 462551320
field sqrsum 9379153115640
field min 1
field max 30415
statistic Basic.rack[5].node[6].app 	"End-to-End Delay"
field count 30415
field mean 0.00049008782037929
field stddev 0.00013378957168341
field sum 14.906021056836
field sqrsum 0.0078496593098988
field min 0.000128367937
field max 0.000836657437
statistic Basic.rack[5].node[6].app 	hops
field count 30415
field mean 6.2547098471149
field stddev 0.82050885862672
field sum 190237
field sqrsum 1210353
field min 5
field max 7
statistic Basic.rack[5].node[7].app 	throughput
field count 29890
field mean 14945.5
field stddev 8628.644109399
field sum 446720995
field sqrsum 8901809267365
field min 1
field max 29890
statistic Basic.rack[5].node[7].app 	"End-to-End Delay"
field count 29890
field mean 0.000490648226183
field stddev 0.00013467858676324
field sum 14.66547548061
field sqrsum 0.0077377258289557
field min 4.1294963e-005
field max 0.000836390955
statistic Basic.rack[5].node[7].app 	hops
field count 29890
field mean 6.2447975911676
field stddev 0.82355125921268
field sum 186657
field sqrsum 1185907
field min 5
field max 7
statistic Basic.rack[5].node[8].app 	throughput
field count 30930
field mean 15465.5
field stddev 8928.8662494182
field sum 478347915
field sqrsum 9863693456605
field min 1
field max 30930
statistic Basic.rack[5].node[8].app 	"End-to-End Delay"
field count 30930
field mean 0.00049060832912312
field stddev 0.00013464326789898
field sum 15.174515619778
field sqrsum 0.008005449705297
field min 0.000405029402
field max 0.000836723138
statistic Basic.rack[5].node[8].app 	hops
field count 30930
field mean 6.2472356935015
field stddev 0.8225928998697
field sum 193227
field sqrsum 1228063
field min 5
field max 7
statistic Basic.rack[5].node[9].app 	throughput
field count 30595
field mean 15298
field stddev 8832.1600793162
field sum 468042310
field sqrsum 9546658997070
field min 1
field max 30595
statistic Basic.rack[5].node[9].app 	"End-to-End Delay"
field count 30595
field mean 0.0004901302187093
field stddev 0.00013428100431739
field sum 14.995534041411
field sqrsum 0.0079014166675376
field min 0.000314955032
field max 0.000836402023
statistic Basic.rack[5].node[9].app 	hops
field count 30595
field mean 6.2393855205099
field stddev 0.82657731625255
field sum 190894
field sqrsum 1211964
field min 5
field max 7
statistic Basic.rack[5].eps.queue[0] 	dropsum
field count 0
field mean nan
field stddev nan
field sum 0
field sqrsum 0
field min nan
field max nan
statistic Basic.rack[5].eps.queue[1] 	dropsum
field count 32323
field mean 16162
field stddev 9330.9907119591
field sum 522404326
field sqrsum 11257290820974
field min 1
field max 32323
statistic Basic.rack[5].eps.queue[2] 	dropsum
field count 0
field mean nan
field stddev nan
field sum 0
field sqrsum 0
field min nan
field max nan
statistic Basic.rack[5].eps.queue[3] 	dropsum
field count 0
field mean nan
field stddev nan
field sum 0
field sqrsum 0
field min nan
field max nan
statistic Basic.rack[6].node[0].app 	throughput
field count 30286
field mean 15143.5
field stddev 8742.9594627144
field sum 458636041
field sqrsum 9260320303831
field min 1
field max 30286
statistic Basic.rack[6].node[0].app 	"End-to-End Delay"
field count 30286
field mean 0.00049074760342927
field stddev 0.00013439518179492
field sum 14.862781917459
field sqrsum 0.0078408842414691
field min 0.000401509445
field max 0.000836398932
statistic Basic.rack[6].node[0].app 	hops
field count 30286
field mean 6.2475401175461
field stddev 0.82180117114305
field sum 189213
field sqrsum 1202569
field min 5
field max 7
statistic Basic.rack[6].node[1].app 	throughput
field count 30399
field mean 15200
field stddev 8775.579752928
field sum 462064800
field sqrsum 9364359258400
field min 1
field max 30399
statistic Basic.rack[6].node[1].app 	"End-to-End Delay"
field count 30399
field mean 0.00049019014752298
field stddev 0.00013419577460654
field sum 14.901290294551
field sqrsum 0.0078518882507933
field min 9.9346457e-005
field max 0.000836817362
statistic Basic.rack[6].node[1].app 	hops
field count 30399
field mean 6.2488897661107
field stddev 0.82246926316316
field sum 189960
field sqrsum 1207602
field min 5
field max 7
statistic Basic.rack[6].node[2].app 	throughput
field count 30593
field mean 15297
field stddev 8831.5827290469
field sum 467981121
field sqrsum 9544786950209
field min 1
field max 30593
statistic Basic.rack[6].node[2].app 	"End-to-End Delay"
field count 30593
field mean 0.00049051793900588
field stddev 0.00013449029342419
field sum 15.006415308007
field sqrsum 0.0079142529618126
field min 0.000403930299
field max 0.000836449476
statistic Basic.rack[6].node[2].app 	hops
field count 30593
field mean 6.2395319190665
field stddev 0.82521848922068
field sum 190886
field sqrsum 1211872
field min 5
field max 7
statistic Basic.rack[6].node[3].app 	throughput
field count 30537
field mean 15269
field stddev 8815.4169215075
field sum 466269453
field sqrsum 9492468947325
field min 1
field max 30537
statistic Basic.rack[6].node[3].app 	"End-to-End Delay"
field count 30537
field mean 0.00049024215270973
field stddev 0.00013411910010958
field sum 14.970524617297
field sqrsum 0.0078884617380994
field min 0.000215446779
field max 0.00083656452
statistic Basic.rack[6].node[3].app 	hops
field count 30537
field mean 6.2592592592593
field stddev 0.81912167820055
field sum 191139
field sqrsum 1216877
field min 5
field max 7
statistic Basic.rack[6].node[4].app 	throughput
field count 30426
field mean 15213.5
field stddev 8783.3739815631
field sum 462885951
field sqrsum 9389332925401
field min 1
field max 30426
statistic Basic.rack[6].node[4].app 	"End-to-End Delay"
field count 30426
field mean 0.00049180821489822
field stddev 0.0001354187270704
field sum 14.963756746493
field sqrsum 0.0079172391913525
field min 0.000406601275
field max 0.000836320136
statistic Basic.rack[6].node[4].app 	hops
field count 30426
field mean 6.2486360349701
field stddev 0.82032657575751
field sum 190121
field sqrsum 1208471
field min 5
field max 7
statistic Basic.rack[6].node[5].app 	throughput
field count 30604
field mean 15302.5
field stddev 8834.7581555279
field sum 468317710
field sqrsum 9555086237130
field min 1
field max 30604
statistic Basic.rack[6].node[5].app 	"End-to-End Delay"
field count 30604
field mean 0.00049164348123739
field stddev 0.00013538095502384
field sum 15.046257099789
field sqrsum 0.0079582860954269
field min 0.000408998123
field max 0.000836300397
statistic Basic.rack[6].node[5].app 	hops
field count 30604
field mean 6.244575872435
field stddev 0.82168971595672
field sum 191109
field sqrsum 1214057
field min 5
field max 7
statistic Basic.rack[6].node[6].app 	throughput
field count 30447
field mean 15224
field stddev 8789.4361593904
field sum 463525128
field sqrsum 9408787556520
field min 1
field max 30447
statistic Basic.rack[6].node[6].app 	"End-to-End Delay"
field count 30447
field mean 0.00049136616497655
field stddev 0.00013479866520169
field sum 14.960625625041
field sqrsum 0.0079043697665734
field min 5.4373099e-005
field max 0.00083663057
statistic Basic.rack[6].node[6].app 	hops
field count 30447
field mean 6.2504351824482
field stddev 0.81959016242901
field sum 190307
field sqrsum 1209953
field min 5
field max 7
statistic Basic.rack[6].node[7].app 	throughput
field count 30517
field mean 15259
field stddev 8809.6434188148
field sum 465658903
field sqrsum 9473830381535
field min 1
field max 30517
statistic Basic.rack[6].node[7].app 	"End-to-End Delay"
field count 30517
field mean 0.00049063783355123
field stddev 0.00013435238974025
field sum 14.972794766483
field sqrsum 0.0078970506166505
field min 0.000366745302
field max 0.000836439276
statistic Basic.rack[6].node[7].app 	hops
field count 30517
field mean 6.2461578792149
field stddev 0.82231266921105
field sum 190614
field sqrsum 1211240
field min 5
field max 7
statistic Basic.rack[6].node[8].app 	throughput
field count 30664
field mean 15332.5
field stddev 8852.0786636059
field sum 470155780
field sqrsum 9611394610540
field min 1
field max 30664
statistic Basic.rack[6].node[8].app 	"End-to-End Delay"
field count 30664
field mean 0.00048996733839594
field stddev 0.00013414513101019
field sum 15.024358464573
field sqrsum 0.0079132230426287
field min 5.5450995e-005
field max 0.000836567005
statistic Basic.rack[6].node[8].app 	hops
field count 30664
field mean 6.2485650926167
field stddev 0.82364363382299
field sum 191606
field sqrsum 1218064
field min 5
field max 7
statistic Basic.rack[6].node[9].app 	throughput
field count 30431
field mean 15216
field stddev 8784.8173572363
field sum 463038096
field sqrsum 9393962545616
field min 1
field max 30431
statistic Basic.rack[6].node[9].app 	"End-to-End Delay"
field count 30431
field mean 0.00049101894704505
field stddev 0.00013470396221026
field sum 14.942197577528
field sqrsum 0.0078890592618083
field min 0.000408869335
field max 0.000836714468
statistic Basic.rack[6].node[9].app 	hops
field count 30431
field mean 6.2467220926029
field stddev 0.82229072021318
field sum 190094
field sqrsum 1208040
field min 5
field max 7
statistic Basic.rack[6].eps.queue[0] 	dropsum
field count 0
field mean nan
field stddev nan
field sum 0
field sqrsum 0
field min nan
field max nan
statistic Basic.rack[6].eps.queue[1] 	dropsum
field count 3123136
field mean 1561568.5
field stddev 901571.84949823
field sum 4876990798816
field sqrsum 1.0154338649313e+019
field min 1
field max 3123136
statistic Basic.rack[6].eps.queue[2] 	dropsum
field count 0
field mean nan
field stddev nan
field sum 0
field sqrsum 0
field min nan
field max nan
statistic Basic.rack[6].eps.queue[3] 	dropsum
field count 0
field mean nan
field stddev nan
field sum 0
field sqrsum 0
field min nan
field max nan
statistic Basic.rack[7].node[0].app 	throughput
field count 34205
field mean 17103
field stddev 9874.2773153279
field sum 585008115
field sqrsum 13340330051755
field min 1
field max 34205
statistic Basic.rack[7].node[0].app 	"End-to-End Delay"
field count 34205
field mean 0.00050674481047229
field stddev 0.00014495665053791
field sum 17.333206242205
field sqrsum 0.0095022214861082
field min 0.000139261937
field max 0.000836512214
statistic Basic.rack[7].node[0].app 	hops
field count 34205
field mean 4.2258441748282
field stddev 0.796883800225
field sum 144545
field sqrsum 632545
field min 3
field max 5
statistic Basic.rack[7].node[1].app 	throughput
field count 34600
field mean 17300.5
field stddev 9988.3039935049
field sum 598597300
field sqrsum 13807843919100
field min 1
field max 34600
statistic Basic.rack[7].node[1].app 	"End-to-End Delay"
field count 34600
field mean 0.00050764861632751
field stddev 0.0001459644478578
field sum 17.564642124932
field sqrsum 0.0096538194187193
field min 7.1767324e-005
field max 0.000836704555
statistic Basic.rack[7].node[1].app 	hops
field count 34600
field mean 4.2308092485549
field stddev 0.79520582447303
field sum 146386
field sqrsum 641210
field min 3
field max 5
statistic Basic.rack[7].node[2].app 	throughput
field count 34310
field mean 17155.5
field stddev 9904.5882044636
field sum 588605205
field sqrsum 13463559257435
field min 1
field max 34310
statistic Basic.rack[7].node[2].app 	"End-to-End Delay"
field count 34310
field mean 0.000506926186997
field stddev 0.00014559213788
field sum 17.392637475867
field sqrsum 0.0095440336931055
field min 0.000405276791
field max 0.000836668819
statistic Basic.rack[7].node[2].app 	hops
field count 34310
field mean 4.2315359953366
field stddev 0.79695049032657
field sum 145184
field sqrsum 636142
field min 3
field max 5
statistic Basic.rack[7].node[3].app 	throughput
field count 34667
field mean 17334
field stddev 10007.645227525
field sum 600917778
field sqrsum 13888211379210
field min 1
field max 34667
statistic Basic.rack[7].node[3].app 	"End-to-End Delay"
field count 34667
field mean 0.00050674067117045
field stddev 0.00014489507638784
field sum 17.567178847466
field sqrsum 0.0096298022196106
field min 3.8724426e-005
field max 0.000836700806
statistic Basic.rack[7].node[3].app 	hops
field count 34667
field mean 4.2234113133528
field stddev 0.79766070637505
field sum 146413
field sqrsum 640419
field min 3
field max 5
statistic Basic.rack[7].node[4].app 	throughput
field count 34629
field mean 17315
field stddev 9996.6755724091
field sum 599601135
field sqrsum 13842591669655
field min 1
field max 34629
statistic Basic.rack[7].node[4].app 	"End-to-End Delay"
field count 34629
field mean 0.00050702190555759
field stddev 0.00014512036376754
field sum 17.557661567554
field sqrsum 0.0096313819341848
field min 0.000399394598
field max 0.00083666507
statistic Basic.rack[7].node[4].app 	hops
field count 34629
field mean 4.2295763666291
field stddev 0.79563736036543
field sum 146466
field sqrsum 641410
field min 3
field max 5
statistic Basic.rack[7].node[5].app 	throughput
field count 34349
field mean 17175
field stddev 9915.846534714
field sum 589944075
field sqrsum 13509522669475
field min 1
field max 34349
statistic Basic.rack[7].node[5].app 	"End-to-End Delay"
field count 34349
field mean 0.00050614139119221
field stddev 0.00014483435331154
field sum 17.385450646061
field sqrsum 0.0095200138255575
field min 8.4992051e-005
field max 0.000836774673
statistic Basic.rack[7].node[5].app 	hops
field count 34349
field mean 4.2320882704009
field stddev 0.79732200521722
field sum 145368
field sqrsum 637046
field min 3
field max 5
statistic Basic.rack[7].node[6].app 	throughput
field count 34704
field mean 17352.5
field stddev 10018.326207506
field sum 602201160
field sqrsum 13932726771480
field min 1
field max 34704
statistic Basic.rack[7].node[6].app 	"End-to-End Delay"
field count 34704
field mean 0.0005075517540302
field stddev 0.00014552214976169
field sum 17.614076071864
field sqrsum 0.009674950089657
field min 0.00023424425
field max 0.00083673377
statistic Basic.rack[7].node[6].app 	hops
field count 34704
field mean 4.2345839096358
field stddev 0.7936593594551
field sum 146957
field sqrsum 644161
field min 3
field max 5
statistic Basic.rack[7].node[7].app 	throughput
field count 34090
field mean 17045.5
field stddev 9841.079674846
field sum 581081095
field sqrsum 13206230046065
field min 1
field max 34090
statistic Basic.rack[7].node[7].app 	"End-to-End Delay"
field count 34090
field mean 0.00050765986725195
field stddev 0.00014564619693563
field sum 17.306124874619
field sqrsum 0.0095087486961831
field min 0.000409355421
field max 0.000836590286
statistic Basic.rack[7].node[7].app 	hops
field count 34090
field mean 4.2277500733353
field stddev 0.79497505944798
field sum 144124
field sqrsum 630864
field min 3
field max 5
statistic Basic.rack[7].node[8].app 	throughput
field count 34258
field mean 17129.5
field stddev 9889.5770974631
field sum 586822411
field sqrsum 13402437044829
field min 1
field max 34258
statistic Basic.rack[7].node[8].app 	"End-to-End Delay"
field count 34258
field mean 0.00050558462911247
field stddev 0.00014430035426782
field sum 17.320318224135
field sqrsum 0.0094702062078872
field min 0.000204291643
field max 0.000836656739
statistic Basic.rack[7].node[8].app 	hops
field count 34258
field mean 4.2330550528344
field stddev 0.79752969114649
field sum 145016
field sqrsum 635650
field min 3
field max 5
statistic Basic.rack[7].node[9].app 	throughput
field count 34280
field mean 17140.5
field stddev 9895.9279504249
field sum 587576340
field sqrsum 13428273815580
field min 1
field max 34280
statistic Basic.rack[7].node[9].app 	"End-to-End Delay"
field count 34280
field mean 0.00050720389319052
field stddev 0.00014525084983186
field sum 17.386949458571
field sqrsum 0.009541940263724
field min 0.000246920062
field max 0.000836717784
statistic Basic.rack[7].node[9].app 	hops
field count 34280
field mean 4.2320303383897
field stddev 0.79447225819272
field sum 145074
field sqrsum 635594
field min 3
field max 5
statistic Basic.rack[7].eps.queue[0] 	dropsum
field count 0
field mean nan
field stddev nan
field sum 0
field sqrsum 0
field min nan
field max nan
statistic Basic.rack[7].eps.queue[1] 	dropsum
field count 0
field mean nan
field stddev nan
field sum 0
field sqrsum 0
field min nan
field max nan
statistic Basic.rack[7].eps.queue[2] 	dropsum
field count 0
field mean nan
field stddev nan
field sum 0
field sqrsum 0
field min nan
field max nan
statistic Basic.rack[7].eps.queue[3] 	dropsum
field count 0
field mean nan
field stddev nan
field sum 0
field sqrsum 0
field min nan
field max nan
statistic Basic.rack[8].node[0].app 	throughput
field count 34789
field mean 17395
field stddev 10042.863593949
field sum 605154655
field sqrsum 14035351913415
field min 1
field max 34789
statistic Basic.rack[8].node[0].app 	"End-to-End Delay"
field count 34789
field mean 0.00051625498162971
field stddev 0.00014560834257274
field sum 17.959994555916
field sqrsum 0.010009504510113
field min 0.000415310275
field max 0.000845301182
statistic Basic.rack[8].node[0].app 	hops
field count 34789
field mean 5.2239213544511
field stddev 0.79714429095713
field sum 181735
field sqrsum 971475
field min 4
field max 6
statistic Basic.rack[8].node[1].app 	throughput
field count 34535
field mean 17268
field stddev 9969.5401097543
field sum 596350380
field sqrsum 13730172365660
field min 1
field max 34535
statistic Basic.rack[8].node[1].app 	"End-to-End Delay"
field count 34535
field mean 0.00051457715987277
field stddev 0.00014484786635104
field sum 17.770922216206
field sqrsum 0.0098690652344169
field min 1.80336e-005
field max 0.000845304927
statistic Basic.rack[8].node[1].app 	hops
field count 34535
field mean 5.2250760098451
field stddev 0.79966917378284
field sum 180448
field sqrsum 964938
field min 4
field max 6
statistic Basic.rack[8].node[2].app 	throughput
field count 34422
field mean 17211.5
field stddev 9936.9198195417
field sum 592454253
field sqrsum 13595837682595
field min 1
field max 34422
statistic Basic.rack[8].node[2].app 	"End-to-End Delay"
field count 34422
field mean 0.00051496865932807
field stddev 0.00014465056877637
field sum 17.726251191391
field sqrsum 0.0098486814848993
field min 5.3845843e-005
field max 0.000845337195
statistic Basic.rack[8].node[2].app 	hops
field count 34422
field mean 5.2303178199988
field stddev 0.79615225288907
field sum 180038
field sqrsum 963474
field min 4
field max 6
statistic Basic.rack[8].node[3].app 	throughput
field count 34550
field mean 17275.5
field stddev 9973.8702367737
field sum 596868525
field sqrsum 13748070648675
field min 1
field max 34550
statistic Basic.rack[8].node[3].app 	"End-to-End Delay"
field count 34550
field mean 0.00051618295323253
field stddev 0.00014567992919555
field sum 17.834121034184
field sqrsum 0.0099388903142577
field min 6.7980745e-005
field max 0.000845319984
statistic Basic.rack[8].node[3].app 	hops
field count 34550
field mean 5.2301013024602
field stddev 0.79552524777738
field sum 180700
field sqrsum 966944
field min 4
field max 6
statistic Basic.rack[8].node[4].app 	throughput
field count 34532
field mean 17266.5
field stddev 9968.6740843504
field sum 596246778
field sqrsum 13726594574190
field min 1
field max 34532
statistic Basic.rack[8].node[4].app 	"End-to-End Delay"
field count 34532
field mean 0.00051586599789095
field stddev 0.00014530373058285
field sum 17.81388463917
field sqrsum 0.009918636391282
field min 0.000308365285
field max 0.000845319905
statistic Basic.rack[8].node[4].app 	hops
field count 34532
field mean 5.2244295146531
field stddev 0.79696855603566
field sum 180410
field sqrsum 964472
field min 4
field max 6
statistic Basic.rack[8].node[5].app 	throughput
field count 34556
field mean 17278.5
field stddev 9975.6022875814
field sum 597075846
field sqrsum 13755234314866
field min 1
field max 34556
statistic Basic.rack[8].node[5].app 	"End-to-End Delay"
field count 34556
field mean 0.00051480602535065
field stddev 0.000144703382624
field sum 17.789637012017
field sqrsum 0.0098817618499068
field min 0.000412258787
field max 0.000845219406
statistic Basic.rack[8].node[5].app 	hops
field count 34556
field mean 5.2273990045144
field stddev 0.79786102818832
field sum 180638
field sqrsum 966264
field min 4
field max 6
statistic Basic.rack[8].node[6].app 	throughput
field count 34766
field mean 17383.5
field stddev 10036.224065853
field sum 604354761
field sqrsum 14007533198871
field min 1
field max 34766
statistic Basic.rack[8].node[6].app 	"End-to-End Delay"
field count 34766
field mean 0.0005166264134798
field stddev 0.000145974977007
field sum 17.961033891039
field sqrsum 0.010019941265374
field min 0.000416868525
field max 0.000845158099
statistic Basic.rack[8].node[6].app 	hops
field count 34766
field mean 5.2272910314675
field stddev 0.79539061623757
field sum 181732
field sqrsum 971960
field min 4
field max 6
statistic Basic.rack[8].node[7].app 	throughput
field count 34484
field mean 17242.5
field stddev 9954.8176778884
field sum 594590370
field sqrsum 13669434409510
field min 1
field max 34484
statistic Basic.rack[8].node[7].app 	"End-to-End Delay"
field count 34484
field mean 0.00051596912191996
field stddev 0.0001455942351239
field sum 17.792679200288
field sqrsum 0.0099114327078893
field min 0.000222450807
field max 0.000845121338
statistic Basic.rack[8].node[7].app 	hops
field count 34484
field mean 5.2271198236863
field stddev 0.79640460123215
field sum 180252
field sqrsum 964070
field min 4
field max 6
statistic Basic.rack[8].node[8].app 	throughput
field count 34895
field mean 17448
field stddev 10073.463158219
field sum 608847960
field sqrsum 14164035992120
field min 1
field max 34895
statistic Basic.rack[8].node[8].app 	"End-to-End Delay"
field count 34895
field mean 0.00051534684968454
field stddev 0.00014523635048503
field sum 17.983028319742
field sqrsum 0.010003536983609
field min 5.4649184e-005
field max 0.000845287925
statistic Basic.rack[8].node[8].app 	hops
field count 34895
field mean 5.2224960596074
field stddev 0.79914661512551
field sum 182239
field sqrsum 974027
field min 4
field max 6
statistic Basic.rack[8].node[9].app 	throughput
field count 34410
field mean 17205.5
field stddev 9933.4557179262
field sum 592041255
field sqrsum 13581623736785
field min 1
field max 34410
statistic Basic.rack[8].node[9].app 	"End-to-End Delay"
field count 34410
field mean 0.00051541726509544
field stddev 0.000144943573223
field sum 17.735508091934
field sqrsum 0.0098640733495791
field min 0.000402470866
field max 0.000845188084
statistic Basic.rack[8].node[9].app 	hops
field count 34410
field mean 5.2297006684103
field stddev 0.79659038872111
field sum 179954
field sqrsum 962940
field min 4
field max 6
statistic Basic.rack[8].eps.queue[0] 	dropsum
field count 0
field mean nan
field stddev nan
field sum 0
field sqrsum 0
field min nan
field max nan
statistic Basic.rack[8].eps.queue[1] 	dropsum
field count 0
field mean nan
field stddev nan
field sum 0
field sqrsum 0
field min nan
field max nan
statistic Basic.rack[8].eps.queue[2] 	dropsum
field count 0
field mean nan
field stddev nan
field sum 0
field sqrsum 0
field min nan
field max nan
statistic Basic.rack[8].eps.queue[3] 	dropsum
field count 0
field mean nan
field stddev nan
field sum 0
field sqrsum 0
field min nan
field max nan
statistic Basic.rack[9].node[0].app 	throughput
field count 57535
field mean 28768
field stddev 16609.068205853
field sum 1655166880
field sqrsum 63487236016160
field min 1
field max 57535
statistic Basic.rack[9].node[0].app 	"End-to-End Delay"
field count 57535
field mean 0.00025649618413676
field stddev 0.00027594707263601
field sum 14.757507954308
field sqrsum 0.0081662737149445
field min 1.80336e-005
field max 0.000837203156
statistic Basic.rack[9].node[0].app 	hops
field count 57535
field mean 6.0005388024681
field stddev 0.52169838936008
field sum 345241
field sqrsum 2087291
field min 5
field max 7
statistic Basic.rack[9].node[1].app 	throughput
field count 57310
field mean 28655.5
field stddev 16544.116300566
field sum 1642246705
field sqrsum 62745319857935
field min 1
field max 57310
statistic Basic.rack[9].node[1].app 	"End-to-End Delay"
field count 57310
field mean 0.00025649068829563
field stddev 0.00027534556230582
field sum 14.699481346223
field sqrsum 0.00811517216314
field min 1.80336e-005
field max 0.000836741374
statistic Basic.rack[9].node[1].app 	hops
field count 57310
field mean 5.9979235735474
field stddev 0.52488299013314
field sum 343741
field sqrsum 2077521
field min 5
field max 7
statistic Basic.rack[9].node[2].app 	throughput
field count 57924
field mean 28962.5
field stddev 16721.362833214
field sum 1677623850
field sqrsum 64783681799550
field min 1
field max 57924
statistic Basic.rack[9].node[2].app 	"End-to-End Delay"
field count 57924
field mean 0.00025602020190789
field stddev 0.00027611962266587
field sum 14.829714175313
field sqrsum 0.0082128744490824
field min 1.80336e-005
field max 0.000837078482
statistic Basic.rack[9].node[2].app 	hops
field count 57924
field mean 6.004108832263
field stddev 0.52113824607741
field sum 347782
field sqrsum 2103852
field min 5
field max 7
statistic Basic.rack[9].node[3].app 	throughput
field count 57661
field mean 28831
field stddev 16645.441272813
field sum 1662424291
field sqrsum 63905252170331
field min 1
field max 57661
statistic Basic.rack[9].node[3].app 	"End-to-End Delay"
field count 57661
field mean 0.00025720672428624
field stddev 0.00027651817033653
field sum 14.830796929069
field sqrsum 0.0082233968297043
field min 1.80336e-005
field max 0.000837087403
statistic Basic.rack[9].node[3].app 	hops
field count 57661
field mean 5.9963753663655
field stddev 0.52191385928146
field sum 345757
field sqrsum 2088995
field min 5
field max 7
statistic Basic.rack[9].node[4].app 	throughput
field count 57797
field mean 28899
field stddev 16684.701091119
field sum 1670275503
field sqrsum 64358498923095
field min 1
field max 57797
statistic Basic.rack[9].node[4].app 	"End-to-End Delay"
field count 57797
field mean 0.00025597663775115
field stddev 0.00027573664467721
field sum 14.794681732103
field sqrsum 0.0081813630627849
field min 1.80336e-005
field max 0.00083715336
statistic Basic.rack[9].node[4].app 	hops
field count 57797
field mean 5.9991002993235
field stddev 0.52049744781537
field sum 346730
field sqrsum 2095726
field min 5
field max 7
statistic Basic.rack[9].node[5].app 	throughput
field count 57886
field mean 28943.5
field stddev 16710.393178099
field sum 1675423441
field sqrsum 64656266011631
field min 1
field max 57886
statistic Basic.rack[9].node[5].app 	"End-to-End Delay"
field count 57886
field mean 0.00025814986407112
field stddev 0.00027627675118821
field sum 14.943263031621
field sqrsum 0.0082758964117509
field min 1.80336e-005
field max 0.000837138965
statistic Basic.rack[9].node[5].app 	hops
field count 57886
field mean 6.0005182600283
field stddev 0.52268210916077
field sum 347346
field sqrsum 2100070
field min 5
field max 7
statistic Basic.rack[9].node[6].app 	throughput
field count 57684
field mean 28842.5
field stddev 16652.080800909
field sum 1663750770
field sqrsum 63981754194710
field min 1
field max 57684
statistic Basic.rack[9].node[6].app 	"End-to-End Delay"
field count 57684
field mean 0.00025664823525037
field stddev 0.00027686047405508
field sum 14.804496802182
field sqrsum 0.0082210492635983
field min 1.80336e-005
field max 0.000836763541
statistic Basic.rack[9].node[6].app 	hops
field count 57684
field mean 5.9963248041051
field stddev 0.51989560031962
field sum 345892
field sqrsum 2089672
field min 5
field max 7
statistic Basic.rack[9].node[7].app 	throughput
field count 58001
field mean 29001
field stddev 16743.590818579
field sum 1682087001
field sqrsum 65042379459001
field min 1
field max 58001
statistic Basic.rack[9].node[7].app 	"End-to-End Delay"
field count 58001
field mean 0.00025690488936304
field stddev 0.00027600058990652
field sum 14.900740487946
field sqrsum 0.0082462999729504
field min 1.80336e-005
field max 0.000836995053
statistic Basic.rack[9].node[7].app 	hops
field count 58001
field mean 6.0027930552922
field stddev 0.52294833141365
field sum 348168
field sqrsum 2105842
field min 5
field max 7
statistic Basic.rack[9].node[8].app 	throughput
field count 57725
field mean 28863
field stddev 16663.916481428
field sum 1666116675
field sqrsum 64118278748475
field min 1
field max 57725
statistic Basic.rack[9].node[8].app 	"End-to-End Delay"
field count 57725
field mean 0.00025788669686525
field stddev 0.0002761337257753
field sum 14.886509576547
field sqrsum 0.0082404782298355
field min 1.80336e-005
field max 0.000837103341
statistic Basic.rack[9].node[8].app 	hops
field count 57725
field mean 5.9981983542659
field stddev 0.52446574425969
field sum 346246
field sqrsum 2092730
field min 5
field max 7
statistic Basic.rack[9].node[9].app 	throughput
field count 57293
field mean 28647
field stddev 16539.208823278
field sum 1641272571
field sqrsum 62689500031059
field min 1
field max 57293
statistic Basic.rack[9].node[9].app 	"End-to-End Delay"
field count 57293
field mean 0.00025878506643842
field stddev 0.00027705273945702
field sum 14.826572811456
field sqrsum 0.008234527595552
field min 1.80336e-005
field max 0.000837118907
statistic Basic.rack[9].node[9].app 	hops
field count 57293
field mean 5.9988654809488
field stddev 0.52069049344574
field sum 343693
field sqrsum 2077301
field min 5
field max 7
statistic Basic.rack[9].eps.queue[0] 	dropsum
field count 0
field mean nan
field stddev nan
field sum 0
field sqrsum 0
field min nan
field max nan
statistic Basic.rack[9].eps.queue[1] 	dropsum
field count 30946
field mean 15473.5
field stddev 8933.4850515724
field sum 478842931
field sqrsum 9879008509461
field min 1
field max 30946
statistic Basic.rack[9].eps.queue[2] 	dropsum
field count 0
field mean nan
field stddev nan
field sum 0
field sqrsum 0
field min nan
field max nan
statistic Basic.rack[9].eps.queue[3] 	dropsum
field count 0
field mean nan
field stddev nan
field sum 0
field sqrsum 0
field min nan
field max nan
statistic Basic.rack[10].node[0].app 	throughput
field count 58054
field mean 29027.5
field stddev 16758.890600713
field sum 1685162485
field sqrsum 65220843656955
field min 1
field max 58054
statistic Basic.rack[10].node[0].app 	"End-to-End Delay"
field count 58054
field mean 0.00025866853422144
field stddev 0.00027604132346842
field sum 15.016743085691
field sqrsum 0.0083079285710131
field min 1.80336e-005
field max 0.000837154227
statistic Basic.rack[10].node[0].app 	hops
field count 58054
field mean 5.9958486925965
field stddev 0.52528113590057
field sum 348083
field sqrsum 2103071
field min 5
field max 7
statistic Basic.rack[10].node[1].app 	throughput
field count 58268
field mean 29134.5
field stddev 16820.667079519
field sum 1697609046
field sqrsum 65944755131234
field min 1
field max 58268
statistic Basic.rack[10].node[1].app 	"End-to-End Delay"
field count 58268
field mean 0.00025675136942051
field stddev 0.00027527297250587
field sum 14.960388793394
field sqrsum 0.0082562944354235
field min 1.80336e-005
field max 0.000837072906
statistic Basic.rack[10].node[1].app 	hops
field count 58268
field mean 6.0034152536555
field stddev 0.52346914802474
field sum 349807
field sqrsum 2116003
field min 5
field max 7
statistic Basic.rack[10].node[2].app 	throughput
field count 57723
field mean 28862
field stddev 16663.339131159
field sum 1666001226
field sqrsum 64111614512674
field min 1
field max 57723
statistic Basic.rack[10].node[2].app 	"End-to-End Delay"
field count 57723
field mean 0.00025778515648188
field stddev 0.00027567105411571
field sum 14.880132587604
field sqrsum 0.0082224335726866
field min 1.80336e-005
field max 0.000837009262
statistic Basic.rack[10].node[2].app 	hops
field count 57723
field mean 5.9986140706477
field stddev 0.52282189234864
field sum 346258
field sqrsum 2092846
field min 5
field max 7
statistic Basic.rack[10].node[3].app 	throughput
field count 57695
field mean 28848
field stddev 16655.25622739
field sum 1664385360
field sqrsum 64018363691920
field min 1
field max 57695
statistic Basic.rack[10].node[3].app 	"End-to-End Delay"
field count 57695
field mean 0.000255778100621
field stddev 0.00027487936795109
field sum 14.757117515328
field sqrsum 0.0081338292182934
field min 1.80336e-005
field max 0.000837219356
statistic Basic.rack[10].node[3].app 	hops
field count 57695
field mean 5.996550827628
field stddev 0.52172801162863
field sum 345971
field sqrsum 2090337
field min 5
field max 7
statistic Basic.rack[10].node[4].app 	throughput
field count 57904
field mean 28952.5
field stddev 16715.589330522
field sum 1676465560
field sqrsum 64716600012680
field min 1
field max 57904
statistic Basic.rack[10].node[4].app 	"End-to-End Delay"
field count 57904
field mean 0.00025839724873559
field stddev 0.00027672459222221
field sum 14.962234290786
field sqrsum 0.008300209251734
field min 1.80336e-005
field max 0.000837015276
statistic Basic.rack[10].node[4].app 	hops
field count 57904
field mean 5.9972540757115
field stddev 0.52138628596205
field sum 347265
field sqrsum 2098377
field min 5
field max 7
statistic Basic.rack[10].node[5].app 	throughput
field count 58064
field mean 29032.5
field stddev 16761.777352059
field sum 1685743080
field sqrsum 65254552712440
field min 1
field max 58064
statistic Basic.rack[10].node[5].app 	"End-to-End Delay"
field count 58064
field mean 0.00025574998872044
field stddev 0.00027504494042589
field sum 14.849867345063
field sqrsum 0.0081903030550379
field min 1.735618e-005
field max 0.000836716953
statistic Basic.rack[10].node[5].app 	hops
field count 58064
field mean 5.998002204464
field stddev 0.52247043816911
field sum 348268
field sqrsum 2104762
field min 5
field max 7
statistic Basic.rack[10].node[6].app 	throughput
field count 58035
field mean 29018
field stddev 16753.405773156
field sum 1684059630
field sqrsum 65156828437910
field min 1
field max 58035
statistic Basic.rack[10].node[6].app 	"End-to-End Delay"
field count 58035
field mean 0.00025810364239641
field stddev 0.00027671042732127
field sum 14.979044886475
field sqrsum 0.0083097316934013
field min 1.80336e-005
field max 0.00083708845
statistic Basic.rack[10].node[6].app 	hops
field count 58035
field mean 6.0012233996726
field stddev 0.52014113713519
field sum 348281
field sqrsum 2105813
field min 5
field max 7
statistic Basic.rack[10].node[7].app 	throughput
field count 57602
field mean 28801.5
field stddev 16628.409439871
field sum 1659024003
field sqrsum 63709286755205
field min 1
field max 57602
statistic Basic.rack[10].node[7].app 	"End-to-End Delay"
field count 57602
field mean 0.00025776083897136
field stddev 0.00027576411644387
field sum 14.847539846428
field sqrsum 0.0082074312134047
field min 1.80336e-005
field max 0.000837209699
statistic Basic.rack[10].node[7].app 	hops
field count 57602
field mean 6.0009721884657
field stddev 0.5213776109919
field sum 345668
field sqrsum 2090002
field min 5
field max 7
statistic Basic.rack[10].node[8].app 	throughput
field count 57857
field mean 28929
field stddev 16702.021599196
field sum 1673745153
field sqrsum 64559140126465
field min 1
field max 57857
statistic Basic.rack[10].node[8].app 	"End-to-End Delay"
field count 57857
field mean 0.00025755217236886
field stddev 0.00027534920436803
field sum 14.901196036745
field sqrsum 0.0082243144276864
field min 1.80336e-005
field max 0.000837186814
statistic Basic.rack[10].node[8].app 	hops
field count 57857
field mean 5.9996197521475
field stddev 0.52393604716155
field sum 347120
field sqrsum 2098470
field min 5
field max 7
statistic Basic.rack[10].node[9].app 	throughput
field count 57819
field mean 28910
field stddev 16691.051944081
field sum 1671547290
field sqrsum 64432019022770
field min 1
field max 57819
statistic Basic.rack[10].node[9].app 	"End-to-End Delay"
field count 57819
field mean 0.00025714186797835
field stddev 0.00027562176254532
field sum 14.86768566464
field sqrsum 0.0082153850528687
field min 1.80336e-005
field max 0.000837178469
statistic Basic.rack[10].node[9].app 	hops
field count 57819
field mean 6.0020581469759
field stddev 0.52309680962742
field sum 347033
field sqrsum 2098733
field min 5
field max 7
statistic Basic.rack[10].eps.queue[0] 	dropsum
field count 0
field mean nan
field stddev nan
field sum 0
field sqrsum 0
field min nan
field max nan
statistic Basic.rack[10].eps.queue[1] 	dropsum
field count 3745189
field mean 1872595
field stddev 1081143.0829989
field sum 7013222195455
field sqrsum 1.7510564085084e+019
field min 1
field max 3745189
statistic Basic.rack[10].eps.queue[2] 	dropsum
field count 0
field mean nan
field stddev nan
field sum 0
field sqrsum 0
field min nan
field max nan
statistic Basic.rack[10].eps.queue[3] 	dropsum
field count 0
field mean nan
field stddev nan
field sum 0
field sqrsum 0
field min nan
field max nan
statistic Basic.rack[11].node[0].app 	throughput
field count 30356
field mean 15178.5
field stddev 8763.1667221388
field sum 460758546
field sqrsum 9324677867766
field min 1
field max 30356
statistic Basic.rack[11].node[0].app 	"End-to-End Delay"
field count 30356
field mean 0.00051134857164825
field stddev 0.00014811747910272
field sum 15.522497240954
field sqrsum 0.0086033586906517
field min 0.000406206207
field max 0.000836353964
statistic Basic.rack[11].node[0].app 	hops
field count 30356
field mean 4.2216365792595
field stddev 0.7925037750044
field sum 128152
field sqrsum 560076
field min 3
field max 5
statistic Basic.rack[11].node[1].app 	throughput
field count 30368
field mean 15184.5
field stddev 8766.6308237544
field sum 461122896
field sqrsum 9335740444784
field min 1
field max 30368
statistic Basic.rack[11].node[1].app 	"End-to-End Delay"
field count 30368
field mean 0.00051001115706273
field stddev 0.00014714661284064
field sum 15.488018817681
field sqrsum 0.0085565724980501
field min 0.000248126778
field max 0.000836607966
statistic Basic.rack[11].node[1].app 	hops
field count 30368
field mean 4.2172681770285
field stddev 0.79545057244145
field sum 128070
field sqrsum 559320
field min 3
field max 5
statistic Basic.rack[11].node[2].app 	throughput
field count 30364
field mean 15182.5
field stddev 8765.4761232158
field sum 461001430
field sqrsum 9332051947490
field min 1
field max 30364
statistic Basic.rack[11].node[2].app 	"End-to-End Delay"
field count 30364
field mean 0.0005122142145658
field stddev 0.00014839715872345
field sum 15.552872411076
field sqrsum 0.0086350477109655
field min 0.000227856341
field max 0.000836629544
statistic Basic.rack[11].node[2].app 	hops
field count 30364
field mean 4.2367277038598
field stddev 0.78587976019593
field sum 128644
field sqrsum 563782
field min 3
field max 5
statistic Basic.rack[11].node[3].app 	throughput
field count 30309
field mean 15155
field stddev 8749.5989908109
field sum 459332895
field sqrsum 9281433587335
field min 1
field max 30309
statistic Basic.rack[11].node[3].app 	"End-to-End Delay"
field count 30309
field mean 0.00051342147623155
field stddev 0.00014916512719896
field sum 15.561291523102
field sqrsum 0.008663861393462
[...]
field count 30511
field mean 6.2256563206712
field stddev 0.78966937374791
field sum 189951
field sqrsum 1201595
field min 5
field max 7
statistic Basic.rack[13].node[2].app 	throughput
field count 30284
field mean 15142.5
field stddev 8742.3821124451
field sum 458575470
field sqrsum 9258485880810
field min 1
field max 30284
statistic Basic.rack[13].node[2].app 	"End-to-End Delay"
field count 30284
field mean 0.00051255376393039
field stddev 0.00014822708459284
field sum 15.522178186868
field sqrsum 0.0086213067813
field min 0.000181455314
field max 0.000837050483
statistic Basic.rack[13].node[2].app 	hops
field count 30284
field mean 6.2246070532294
field stddev 0.78955266843824
field sum 188506
field sqrsum 1192254
field min 5
field max 7
statistic Basic.rack[13].node[3].app 	throughput
field count 30399
field mean 15200
field stddev 8775.579752928
field sum 462064800
field sqrsum 9364359258400
field min 1
field max 30399
statistic Basic.rack[13].node[3].app 	"End-to-End Delay"
field count 30399
field mean 0.0005126055805813
field stddev 0.0001485299521257
field sum 15.582697044091
field sqrsum 0.0086583922020407
field min 0.000220310789
field max 0.000836910484
statistic Basic.rack[13].node[3].app 	hops
field count 30399
field mean 6.2237244646205
field stddev 0.79045913472144
field sum 189195
field sqrsum 1196491
field min 5
field max 7
statistic Basic.rack[13].node[4].app 	throughput
field count 30897
field mean 15449
field stddev 8919.3399699754
field sum 477327753
field sqrsum 9832156165545
field min 1
field max 30897
statistic Basic.rack[13].node[4].app 	"End-to-End Delay"
field count 30897
field mean 0.0005134077239678
field stddev 0.00014893355668806
field sum 15.862758447433
field sqrsum 0.0088293731986399
field min 8.2981404e-005
field max 0.000836976038
statistic Basic.rack[13].node[4].app 	hops
field count 30897
field mean 6.2297957730524
field stddev 0.78680308964089
field sum 192482
field sqrsum 1218250
field min 5
field max 7
statistic Basic.rack[13].node[5].app 	throughput
field count 30467
field mean 15234
field stddev 8795.2096620831
field sum 464134278
field sqrsum 9427340743310
field min 1
field max 30467
statistic Basic.rack[13].node[5].app 	"End-to-End Delay"
field count 30467
field mean 0.00051389293834474
field stddev 0.00014921836187506
field sum 15.656776152549
field sqrsum 0.0087242662993561
field min 0.000121377119
field max 0.00083691823
statistic Basic.rack[13].node[5].app 	hops
field count 30467
field mean 6.2225030360718
field stddev 0.78714504313264
field sum 189581
field sqrsum 1198545
field min 5
field max 7
statistic Basic.rack[13].node[6].app 	throughput
field count 31025
field mean 15513
field stddev 8956.2903872083
field sum 481290825
field sqrsum 9954858994025
field min 1
field max 31025
statistic Basic.rack[13].node[6].app 	"End-to-End Delay"
field count 31025
field mean 0.00051288209156128
field stddev 0.00014872123031137
field sum 15.912166890689
field sqrsum 0.0088472544029782
field min 1.8200318e-005
field max 0.000836977932
statistic Basic.rack[13].node[6].app 	hops
field count 31025
field mean 6.2149556809025
field stddev 0.79206556700255
field sum 192819
field sqrsum 1217825
field min 5
field max 7
statistic Basic.rack[13].node[7].app 	throughput
field count 30611
field mean 15306
field stddev 8836.7788814703
field sum 468531966
field sqrsum 9561644184806
field min 1
field max 30611
statistic Basic.rack[13].node[7].app 	"End-to-End Delay"
field count 30611
field mean 0.00051235154352707
field stddev 0.00014832341545527
field sum 15.683593098907
field sqrsum 0.0087089280991441
field min 0.00010798853
field max 0.000836982162
statistic Basic.rack[13].node[7].app 	hops
field count 30611
field mean 6.2223383750939
field stddev 0.79022873342514
field sum 190472
field sqrsum 1204296
field min 5
field max 7
statistic Basic.rack[13].node[8].app 	throughput
field count 30563
field mean 15282
field stddev 8822.9224750079
field sum 467063766
field sqrsum 9516735608094
field min 1
field max 30563
statistic Basic.rack[13].node[8].app 	"End-to-End Delay"
field count 30563
field mean 0.00051288692497648
field stddev 0.00014878326239958
field sum 15.675363088056
field sqrsum 0.0087162232372843
field min 4.8056613e-005
field max 0.000837032808
statistic Basic.rack[13].node[8].app 	hops
field count 30563
field mean 6.2319798449105
field stddev 0.7869190788508
field sum 190468
field sqrsum 1205918
field min 5
field max 7
statistic Basic.rack[13].node[9].app 	throughput
field count 30597
field mean 15299
field stddev 8832.7374295855
field sum 468103503
field sqrsum 9548531288695
field min 1
field max 30597
statistic Basic.rack[13].node[9].app 	"End-to-End Delay"
field count 30597
field mean 0.00051197727657244
field stddev 0.00014759314458629
field sum 15.664968731287
field sqrsum 0.0086866032253549
field min 0.000410134687
field max 0.000836788453
statistic Basic.rack[13].node[9].app 	hops
field count 30597
field mean 6.2304147465438
field stddev 0.78852188815693
field sum 190632
field sqrsum 1206740
field min 5
field max 7
statistic Basic.rack[13].eps.queue[0] 	dropsum
field count 0
field mean nan
field stddev nan
field sum 0
field sqrsum 0
field min nan
field max nan
statistic Basic.rack[13].eps.queue[1] 	dropsum
field count 32764
field mean 16382.5
field stddev 9458.2964463304
field sum 536756230
field sqrsum 11724366331890
field min 1
field max 32764
statistic Basic.rack[13].eps.queue[2] 	dropsum
field count 0
field mean nan
field stddev nan
field sum 0
field sqrsum 0
field min nan
field max nan
statistic Basic.rack[13].eps.queue[3] 	dropsum
field count 0
field mean nan
field stddev nan
field sum 0
field sqrsum 0
field min nan
field max nan
statistic Basic.rack[14].node[0].app 	throughput
field count 30747
field mean 15374
field stddev 8876.0386997804
field sum 472704378
field sqrsum 9689651908370
field min 1
field max 30747
statistic Basic.rack[14].node[0].app 	"End-to-End Delay"
field count 30747
field mean 0.00051315092864062
field stddev 0.0001488865211009
field sum 15.777851602913
field sqrsum 0.008777971815294
field min 3.3534074e-005
field max 0.000836912048
statistic Basic.rack[14].node[0].app 	hops
field count 30747
field mean 6.2212248349432
field stddev 0.79009571670187
field sum 191284
field sqrsum 1209214
field min 5
field max 7
statistic Basic.rack[14].node[1].app 	throughput
field count 30472
field mean 15236.5
field stddev 8796.6530377563
field sum 464286628
field sqrsum 9431982847820
field min 1
field max 30472
statistic Basic.rack[14].node[1].app 	"End-to-End Delay"
field count 30472
field mean 0.00051265194297306
field stddev 0.00014801397257313
field sum 15.621530006275
field sqrsum 0.0086759705243275
field min 5.296339e-005
field max 0.000837032851
statistic Basic.rack[14].node[1].app 	hops
field count 30472
field mean 6.2346744552376
field stddev 0.7853312672939
field sum 189983
field sqrsum 1203275
field min 5
field max 7
statistic Basic.rack[14].node[2].app 	throughput
field count 30613
field mean 15307
field stddev 8837.3562317396
field sum 468593191
field sqrsum 9563518435119
field min 1
field max 30613
statistic Basic.rack[14].node[2].app 	"End-to-End Delay"
field count 30613
field mean 0.00051298578464959
field stddev 0.00014873883639774
field sum 15.704033825478
field sqrsum 0.0087331827814844
field min 0.000173541976
field max 0.000836893621
statistic Basic.rack[14].node[2].app 	hops
field count 30613
field mean 6.223401822755
field stddev 0.79025231656707
field sum 190517
field sqrsum 1204781
field min 5
field max 7
statistic Basic.rack[14].node[3].app 	throughput
field count 30334
field mean 15167.5
field stddev 8756.8158691768
field sum 460090945
field sqrsum 9304419180735
field min 1
field max 30334
statistic Basic.rack[14].node[3].app 	"End-to-End Delay"
field count 30334
field mean 0.0005132490692365
field stddev 0.00014909988331429
field sum 15.56889726622
field sqrsum 0.0086650481351991
field min 0.000208710852
field max 0.000837051606
statistic Basic.rack[14].node[3].app 	hops
field count 30334
field mean 6.2249620887453
field stddev 0.78899852113312
field sum 188828
field sqrsum 1194330
field min 5
field max 7
statistic Basic.rack[14].node[4].app 	throughput
field count 30323
field mean 15162
field stddev 8753.6404426958
field sum 459757326
field sqrsum 9294300849974
field min 1
field max 30323
statistic Basic.rack[14].node[4].app 	"End-to-End Delay"
field count 30323
field mean 0.00051083268778577
field stddev 0.00014750519204794
field sum 15.489979591728
field sqrsum 0.0085725273647235
field min 0.00020761434
field max 0.000837022108
statistic Basic.rack[14].node[4].app 	hops
field count 30323
field mean 6.2261319790258
field stddev 0.79188577184383
field sum 188795
field sqrsum 1194477
field min 5
field max 7
statistic Basic.rack[14].node[5].app 	throughput
field count 30444
field mean 15222.5
field stddev 8788.5701339865
field sum 463433790
field sqrsum 9406006679770
field min 1
field max 30444
statistic Basic.rack[14].node[5].app 	"End-to-End Delay"
field count 30444
field mean 0.00051384048497841
field stddev 0.00014858441936381
field sum 15.643359724683
field sqrsum 0.0087102916950004
field min 4.0767612e-005
field max 0.000837133958
statistic Basic.rack[14].node[5].app 	hops
field count 30444
field mean 6.2169885691762
field stddev 0.78773265223703
field sum 189270
field sqrsum 1195580
field min 5
field max 7
statistic Basic.rack[14].node[6].app 	throughput
field count 30332
field mean 15166.5
field stddev 8756.2385189075
field sum 460030278
field sqrsum 9302578938290
field min 1
field max 30332
statistic Basic.rack[14].node[6].app 	"End-to-End Delay"
field count 30332
field mean 0.0005122833995092
field stddev 0.00014822373323391
field sum 15.538580073913
field sqrsum 0.00862653703768
field min 0.000186637115
field max 0.000837003027
statistic Basic.rack[14].node[6].app 	hops
field count 30332
field mean 6.2179216668865
field stddev 0.79162511966674
field sum 188602
field sqrsum 1191720
field min 5
field max 7
statistic Basic.rack[14].node[7].app 	throughput
field count 30530
field mean 15265.5
field stddev 8813.396195565
field sum 466055715
field sqrsum 9485942671205
field min 1
field max 30530
statistic Basic.rack[14].node[7].app 	"End-to-End Delay"
field count 30530
field mean 0.00051255663945299
field stddev 0.00014863265847928
field sum 15.6483542025
field sqrsum 0.0086951043499331
field min 0.000147379034
field max 0.000836914441
statistic Basic.rack[14].node[7].app 	hops
field count 30530
field mean 6.2214215525712
field stddev 0.79091251653925
field sum 189940
field sqrsum 1200794
field min 5
field max 7
statistic Basic.rack[14].node[8].app 	throughput
field count 30542
field mean 15271.5
field stddev 8816.8602971806
field sum 466422153
field sqrsum 9497132405335
field min 1
field max 30542
statistic Basic.rack[14].node[8].app 	"End-to-End Delay"
field count 30542
field mean 0.00051325355096968
field stddev 0.00014895243644931
field sum 15.675789953716
field sqrsum 0.0087232627818485
field min 6.0646207e-005
field max 0.000837098727
statistic Basic.rack[14].node[8].app 	hops
field count 30542
field mean 6.2250671206863
field stddev 0.78880233013168
field sum 190126
field sqrsum 1202550
field min 5
field max 7
statistic Basic.rack[14].node[9].app 	throughput
field count 30834
field mean 15417.5
field stddev 8901.1534364935
field sum 475383195
field sqrsum 9772135417485
field min 1
field max 30834
statistic Basic.rack[14].node[9].app 	"End-to-End Delay"
field count 30834
field mean 0.00051284332310258
field stddev 0.00014917911203913
field sum 15.813011024545
field sqrsum 0.0087957672675705
field min 7.4867194e-005
field max 0.000837042738
statistic Basic.rack[14].node[9].app 	hops
field count 30834
field mean 6.22754102614
field stddev 0.78976794549541
field sum 192020
field sqrsum 1215044
field min 5
field max 7
statistic Basic.rack[14].eps.queue[0] 	dropsum
field count 0
field mean nan
field stddev nan
field sum 0
field sqrsum 0
field min nan
field max nan
statistic Basic.rack[14].eps.queue[1] 	dropsum
field count 3123180
field mean 1561590.5
field stddev 901584.55120415
field sum 4877128217790
field sqrsum 1.015476783055e+019
field min 1
field max 3123180
statistic Basic.rack[14].eps.queue[2] 	dropsum
field count 0
field mean nan
field stddev nan
field sum 0
field sqrsum 0
field min nan
field max nan
statistic Basic.rack[14].eps.queue[3] 	dropsum
field count 0
field mean nan
field stddev nan
field sum 0
field sqrsum 0
field min nan
field max nan
statistic Basic.rack[15].node[0].app 	throughput
field count 34044
field mean 17022.5
field stddev 9827.8006186532
field sum 579513990
field sqrsum 13152842688370
field min 1
field max 34044
statistic Basic.rack[15].node[0].app 	"End-to-End Delay"
field count 34044
field mean 0.00052483486869375
field stddev 0.00015336768061076
field sum 17.86747826981
field sqrsum 0.01017822298788
field min 0.000136389164
field max 0.00083666439
statistic Basic.rack[15].node[0].app 	hops
field count 34044
field mean 4.2067912113735
field stddev 0.76560213839394
field sum 143216
field sqrsum 622434
field min 3
field max 5
statistic Basic.rack[15].node[1].app 	throughput
field count 34384
field mean 17192.5
field stddev 9925.9501644259
field sum 591146920
field sqrsum 13550860847160
field min 1
field max 34384
statistic Basic.rack[15].node[1].app 	"End-to-End Delay"
field count 34384
field mean 0.00052262755576626
field stddev 0.00015286983479105
field sum 17.970025877467
field sqrsum 0.010195133437011
field min 0.000156820232
field max 0.000836617137
statistic Basic.rack[15].node[1].app 	hops
field count 34384
field mean 4.2135295486273
field stddev 0.76955766850007
field sum 144878
field sqrsum 630810
field min 3
field max 5
statistic Basic.rack[15].node[2].app 	throughput
field count 34200
field mean 17100.5
field stddev 9872.8339396548
field sum 584837100
field sqrsum 13334480825700
field min 1
field max 34200
statistic Basic.rack[15].node[2].app 	"End-to-End Delay"
field count 34200
field mean 0.00052477367505166
field stddev 0.00015388548795849
field sum 17.947259686767
field sqrsum 0.010228107166612
field min 0.000188432888
field max 0.000836509319
statistic Basic.rack[15].node[2].app 	hops
field count 34200
field mean 4.2054678362573
field stddev 0.76826240761322
field sum 143827
field sqrsum 625045
field min 3
field max 5
statistic Basic.rack[15].node[3].app 	throughput
field count 34092
field mean 17046.5
field stddev 9841.6570251152
field sum 581149278
field sqrsum 13208554506810
field min 1
field max 34092
statistic Basic.rack[15].node[3].app 	"End-to-End Delay"
field count 34092
field mean 0.00052488176633395
field stddev 0.00015388358891795
field sum 17.894269177857
field sqrsum 0.010199655911693
field min 5.3385016e-005
field max 0.000836731643
statistic Basic.rack[15].node[3].app 	hops
field count 34092
field mean 4.2116332277367
field stddev 0.76624824827519
field sum 143583
field sqrsum 624735
field min 3
field max 5
statistic Basic.rack[15].node[4].app 	throughput
field count 33896
field mean 16948.5
field stddev 9785.0766987285
field sum 574486356
field sqrsum 12982051177436
field min 1
field max 33896
statistic Basic.rack[15].node[4].app 	"End-to-End Delay"
field count 33896
field mean 0.0005230628052218
field stddev 0.00015286933611745
field sum 17.729736845798
field sqrsum 0.010065859295295
field min 8.5335659e-005
field max 0.00083653186
statistic Basic.rack[15].node[4].app 	hops
field count 33896
field mean 4.2004071276847
field stddev 0.77239651889791
field sum 142377
field sqrsum 618263
field min 3
field max 5
statistic Basic.rack[15].node[5].app 	throughput
field count 34312
field mean 17156.5
field stddev 9905.1655547329
field sum 588673828
field sqrsum 13465913815500
field min 1
field max 34312
statistic Basic.rack[15].node[5].app 	"End-to-End Delay"
field count 34312
field mean 0.0005242477688643
field stddev 0.00015344699292391
field sum 17.987989445272
field sqrsum 0.010238049440377
field min 0.000369909008
field max 0.000836591669
statistic Basic.rack[15].node[5].app 	hops
field count 34312
field mean 4.2100431335976
field stddev 0.76708426286381
field sum 144455
field sqrsum 628351
field min 3
field max 5
statistic Basic.rack[15].node[6].app 	throughput
field count 34391
field mean 17196
field stddev 9927.9708903683
field sum 591387636
field sqrsum 13559138588996
field min 1
field max 34391
statistic Basic.rack[15].node[6].app 	"End-to-End Delay"
field count 34391
field mean 0.00052387857915079
field stddev 0.00015346926332328
field sum 18.016708215575
field sqrsum 0.010248548801406
field min 2.0465265e-005
field max 0.000836587107
statistic Basic.rack[15].node[6].app 	hops
field count 34391
field mean 4.2094443313658
field stddev 0.76849820277984
field sum 144767
field sqrsum 629699
field min 3
field max 5
statistic Basic.rack[15].node[7].app 	throughput
field count 34146
field mean 17073.5
field stddev 9857.245482385
field sum 582991731
field sqrsum 13271418095061
field min 1
field max 34146
statistic Basic.rack[15].node[7].app 	"End-to-End Delay"
field count 34146
field mean 0.00052390635717373
field stddev 0.00015328731871531
field sum 17.889306472054
field sqrsum 0.010174626522123
field min 7.8393941e-005
field max 0.000836701905
statistic Basic.rack[15].node[7].app 	hops
field count 34146
field mean 4.2156035846073
field stddev 0.7658077146736
field sum 143946
field sqrsum 626844
field min 3
field max 5
statistic Basic.rack[15].node[8].app 	throughput
field count 34132
field mean 17066.5
field stddev 9853.2040305003
field sum 582513778
field sqrsum 13255101018390
field min 1
field max 34132
statistic Basic.rack[15].node[8].app 	"End-to-End Delay"
field count 34132
field mean 0.00052438698959232
field stddev 0.00015367109058055
field sum 17.898376728765
field sqrsum 0.010191672769448
field min 9.4416e-006
field max 0.000836666478
statistic Basic.rack[15].node[8].app 	hops
field count 34132
field mean 4.2083382163366
field stddev 0.76724090598957
field sum 143639
field sqrsum 624573
field min 3
field max 5
statistic Basic.rack[15].node[9].app 	throughput
field count 34453
field mean 17227
field stddev 9945.868748715
field sum 593521831
field sqrsum 13632602936239
field min 1
field max 34453
statistic Basic.rack[15].node[9].app 	"End-to-End Delay"
field count 34453
field mean 0.0005244340600146
field stddev 0.00015351311368758
field sum 18.068326669683
field sqrsum 0.010287551256355
field min 0.000322330526
field max 0.000836509938
statistic Basic.rack[15].node[9].app 	hops
field count 34453
field mean 4.2146982846196
field stddev 0.76493748912086
field sum 145209
field sqrsum 632171
field min 3
field max 5
statistic Basic.rack[15].eps.queue[0] 	dropsum
field count 0
field mean nan
field stddev nan
field sum 0
field sqrsum 0
field min nan
field max nan
statistic Basic.rack[15].eps.queue[1] 	dropsum
field count 0
field mean nan
field stddev nan
field sum 0
field sqrsum 0
field min nan
field max nan
statistic Basic.rack[15].eps.queue[2] 	dropsum
field count 0
field mean nan
field stddev nan
field sum 0
field sqrsum 0
field min nan
field max nan
statistic Basic.rack[15].eps.queue[3] 	dropsum
field count 0
field mean nan
field stddev nan
field sum 0
field sqrsum 0
field min nan
field max nan
