version 2
run Basic-28-20180510-16:34:35-17168
attr configname Basic
attr datetime 20180510-16:34:35
attr experiment Basic
attr inifile omnetpp.ini
attr iterationvars "$0=exponential(0.25 ms), $1=7, $2=2"
attr iterationvarsf exponential(0.25_ms),7,2-
attr measurement "$0=exponential(0.25 ms), $1=7, $2=2"
attr network Networks.Basic
attr processid 17168
attr repetition 0
attr replication #0
attr resultdir results
attr runnumber 28
attr seedset 28
param **.frameCapacity 50
param **.packetLength "1024 bytes"
param **.pattern 7
param **.sendIaTime "exponential(0.25 ms)"
param **.tp 2

statistic Basic.rack[0].node[0].app 	throughput
field count 40081
field mean 20041
field stddev 11570.532406362
field sum 803263321
field sqrsum 21463999200441
field min 1
field max 40081
statistic Basic.rack[0].node[0].app 	"End-to-End Delay"
field count 40081
field mean 1.0013991498118e-005
field stddev 7.2037110530901e-006
field sum 0.40137079323606
field sqrsum 6.0992133047501e-006
field min 4e-007
field max 5.5196584e-005
statistic Basic.rack[0].node[0].app 	hops
field count 40081
field mean 3.0031436341409
field stddev 0.70501489738967
field sum 120369
field sqrsum 381407
field min 2
field max 4
statistic Basic.rack[0].node[1].app 	throughput
field count 40141
field mean 20071
field stddev 11587.852914439
field sum 805670011
field sqrsum 21560535164371
field min 1
field max 40141
statistic Basic.rack[0].node[1].app 	"End-to-End Delay"
field count 40141
field mean 9.9763551460368e-006
field stddev 7.1780703013142e-006
field sum 0.40046087191706
field sqrsum 6.0633410674156e-006
field min 4e-007
field max 5.0824624e-005
statistic Basic.rack[0].node[1].app 	hops
field count 40141
field mean 3.0023666575322
field stddev 0.70937165904838
field sum 120518
field sqrsum 382038
field min 2
field max 4
statistic Basic.rack[0].node[2].app 	throughput
field count 39989
field mean 19995
field stddev 11543.974293977
field sum 799580055
field sqrsum 21316537739615
field min 1
field max 39989
statistic Basic.rack[0].node[2].app 	"End-to-End Delay"
field count 39989
field mean 9.9562193141629e-006
field stddev 7.2148402626796e-006
field sum 0.39813925415406
field sqrsum 6.0454938855342e-006
field min 4e-007
field max 5.6410183e-005
statistic Basic.rack[0].node[2].app 	hops
field count 39989
field mean 2.9975243191878
field stddev 0.7070847639067
field sum 119868
field sqrsum 379300
field min 2
field max 4
statistic Basic.rack[0].node[3].app 	throughput
field count 39534
field mean 19767.5
field stddev 11412.627107726
field sum 781488345
field sqrsum 20597167316935
field min 1
field max 39534
statistic Basic.rack[0].node[3].app 	"End-to-End Delay"
field count 39534
field mean 1.0017270028306e-005
field stddev 7.2086850852119e-006
field sum 0.39602275329906
field sqrsum 6.0214047627731e-006
field min 4e-007
field max 4.5264525e-005
statistic Basic.rack[0].node[3].app 	hops
field count 39534
field mean 3.0044518642181
field stddev 0.70833481161442
field sum 118778
field sqrsum 376698
field min 2
field max 4
statistic Basic.rack[0].node[4].app 	throughput
field count 40125
field mean 20063
field stddev 11583.234112285
field sum 805027875
field sqrsum 21534763998875
field min 1
field max 40125
statistic Basic.rack[0].node[4].app 	"End-to-End Delay"
field count 40125
field mean 9.9877461651354e-006
field stddev 7.2246062632396e-006
field sum 0.40075831487606
field sqrsum 6.0969419209248e-006
field min 4e-007
field max 5.3623083e-005
statistic Basic.rack[0].node[4].app 	hops
field count 40125
field mean 3.0012211838006
field stddev 0.70912948303982
field sum 120424
field sqrsum 381596
field min 2
field max 4
statistic Basic.rack[0].node[5].app 	throughput
field count 39589
field mean 19795
field stddev 11428.50424013
field sum 783664255
field sqrsum 20683250682215
field min 1
field max 39589
statistic Basic.rack[0].node[5].app 	"End-to-End Delay"
field count 39589
field mean 9.9931595269156e-006
field stddev 7.2387446581845e-006
field sum 0.39561919251106
field sqrsum 6.0278741089471e-006
field min 4e-007
field max 4.9357516e-005
statistic Basic.rack[0].node[5].app 	hops
field count 39589
field mean 3.0016923893001
field stddev 0.70915587597449
field sum 118834
field sqrsum 376612
field min 2
field max 4
statistic Basic.rack[0].node[6].app 	throughput
field count 40146
field mean 20073.5
field stddev 11589.296290112
field sum 805870731
field sqrsum 21568592868061
field min 1
field max 40146
statistic Basic.rack[0].node[6].app 	"End-to-End Delay"
field count 40146
field mean 9.987620999852e-006
field stddev 7.2218543802685e-006
field sum 0.40096303266006
field sqrsum 6.0984365339521e-006
field min 4e-007
field max 6.5895077e-005
statistic Basic.rack[0].node[6].app 	hops
field count 40146
field mean 3.00201763563
field stddev 0.7085204020228
field sum 120519
field sqrsum 381953
field min 2
field max 4
statistic Basic.rack[0].node[7].app 	throughput
field count 40297
field mean 20149
field stddev 11632.886235439
field sum 811944253
field sqrsum 21812882356845
field min 1
field max 40297
statistic Basic.rack[0].node[7].app 	"End-to-End Delay"
field count 40297
field mean 9.9581311570603e-006
field stddev 7.1774192789143e-006
field sum 0.40128281123606
field sqrsum 6.0718893084374e-006
field min 4e-007
field max 5.8067693e-005
statistic Basic.rack[0].node[7].app 	hops
field count 40297
field mean 3.0006700250639
field stddev 0.70821111377098
field sum 120918
field sqrsum 383046
field min 2
field max 4
statistic Basic.rack[0].node[8].app 	throughput
field count 40279
field mean 20140
field stddev 11627.690083016
field sum 811219060
field sqrsum 21783665418180
field min 1
field max 40279
statistic Basic.rack[0].node[8].app 	"End-to-End Delay"
field count 40279
field mean 9.9553516957985e-006
field stddev 7.1791851826613e-006
field sum 0.40099161095507
field sqrsum 6.0679688241688e-006
field min 4e-007
field max 5.8340774e-005
statistic Basic.rack[0].node[8].app 	hops
field count 40279
field mean 2.9986841778594
field stddev 0.70577006342561
field sum 120784
field sqrsum 382256
field min 2
field max 4
statistic Basic.rack[0].node[9].app 	throughput
field count 39897
field mean 19949
field stddev 11517.416181592
field sum 795905253
field sqrsum 21169753221045
field min 1
field max 39897
statistic Basic.rack[0].node[9].app 	"End-to-End Delay"
field count 39897
field mean 1.002912225195e-005
field stddev 7.2196014412098e-006
field sum 0.40013189048606
field sqrsum 6.0924566903085e-006
field min 4e-007
field max 5.8452129e-005
statistic Basic.rack[0].node[9].app 	hops
field count 39897
field mean 3.0050630373211
field stddev 0.7063438453714
field sum 119893
field sqrsum 380191
field min 2
field max 4
statistic Basic.rack[0].eps.queue[0] 	dropsum
field count 0
field mean nan
field stddev nan
field sum 0
field sqrsum 0
field min nan
field max nan
statistic Basic.rack[0].eps.queue[1] 	dropsum
field count 0
field mean nan
field stddev nan
field sum 0
field sqrsum 0
field min nan
field max nan
statistic Basic.rack[0].eps.queue[2] 	dropsum
field count 0
field mean nan
field stddev nan
field sum 0
field sqrsum 0
field min nan
field max nan
statistic Basic.rack[0].eps.queue[3] 	dropsum
field count 0
field mean nan
field stddev nan
field sum 0
field sqrsum 0
field min nan
field max nan
statistic Basic.rack[1].node[0].app 	throughput
field count 39557
field mean 19779
field stddev 11419.266635822
field sum 782397903
field sqrsum 20633136698615
field min 1
field max 39557
statistic Basic.rack[1].node[0].app 	"End-to-End Delay"
field count 39557
field mean 9.9967506406971e-006
field stddev 7.2316006821609e-006
field sum 0.39544146509406
field sqrsum 6.0217522110852e-006
field min 4e-007
field max 5.439596e-005
statistic Basic.rack[1].node[0].app 	hops
field count 39557
field mean 3.0008342391991
field stddev 0.70816019395474
field sum 118704
field sqrsum 376048
field min 2
field max 4
statistic Basic.rack[1].node[1].app 	throughput
field count 39944
field mean 19972.5
field stddev 11530.983912919
field sum 797781540
field sqrsum 21244656483020
field min 1
field max 39944
statistic Basic.rack[1].node[1].app 	"End-to-End Delay"
field count 39944
field mean 9.95669979176e-006
field stddev 7.2402165461484e-006
field sum 0.39771041648206
field sqrsum 6.0537246644414e-006
field min 4e-007
field max 6.339707e-005
statistic Basic.rack[1].node[1].app 	hops
field count 39944
field mean 2.9967704786701
field stddev 0.70847006627543
field sum 119703
field sqrsum 378771
field min 2
field max 4
statistic Basic.rack[1].node[2].app 	throughput
field count 39472
field mean 19736.5
field stddev 11394.72924938
field sum 779039128
field sqrsum 20500414653320
field min 1
field max 39472
statistic Basic.rack[1].node[2].app 	"End-to-End Delay"
field count 39472
field mean 9.9970078668946e-006
field stddev 7.1735939924439e-006
field sum 0.39460189452206
field sqrsum 5.9760336961092e-006
field min 4e-007
field max 5.8030565e-005
statistic Basic.rack[1].node[2].app 	hops
field count 39472
field mean 3.0035214835833
field stddev 0.70543894572696
field sum 118555
field sqrsum 375725
field min 2
field max 4
statistic Basic.rack[1].node[3].app 	throughput
field count 40170
field mean 20085.5
field stddev 11596.224493343
field sum 806834535
field sqrsum 21607297792145
field min 1
field max 40170
statistic Basic.rack[1].node[3].app 	"End-to-End Delay"
field count 40170
field mean 9.9441296191203e-006
field stddev 7.2304236554482e-006
field sum 0.39945568680006
field sqrsum 6.0722353315592e-006
field min 4e-007
field max 5.6783193e-005
statistic Basic.rack[1].node[3].app 	hops
field count 40170
field mean 2.9979337814289
field stddev 0.7114997420177
field sum 120427
field sqrsum 381367
field min 2
field max 4
statistic Basic.rack[1].node[4].app 	throughput
field count 40221
field mean 20111
field stddev 11610.946925208
field sum 808884531
field sqrsum 21689699442411
field min 1
field max 40221
statistic Basic.rack[1].node[4].app 	"End-to-End Delay"
field count 40221
field mean 9.9713943001433e-006
field stddev 7.1770128772824e-006
field sum 0.40105945014606
field sqrsum 6.0708345618771e-006
field min 4e-007
field max 5.2620472e-005
statistic Basic.rack[1].node[4].app 	hops
field count 40221
field mean 3.0009945053579
field stddev 0.70587433958642
field sum 120703
field sqrsum 382269
field min 2
field max 4
statistic Basic.rack[1].node[5].app 	throughput
field count 39981
field mean 19991
field stddev 11541.6648929
field sum 799260171
field sqrsum 21303747017891
field min 1
field max 39981
statistic Basic.rack[1].node[5].app 	"End-to-End Delay"
field count 39981
field mean 1.0031647599636e-005
field stddev 7.2106925316739e-006
field sum 0.40107530268106
field sqrsum 6.1021696871317e-006
field min 4e-007
field max 6.0187087e-005
statistic Basic.rack[1].node[5].app 	hops
field count 39981
field mean 3.005752732548
field stddev 0.70676493979817
field sum 120173
field sqrsum 381181
field min 2
field max 4
statistic Basic.rack[1].node[6].app 	throughput
field count 40013
field mean 20007
field stddev 11550.902497208
field sum 800540091
field sqrsum 21354940620819
field min 1
field max 40013
statistic Basic.rack[1].node[6].app 	"End-to-End Delay"
field count 40013
field mean 1.0041753437784e-005
field stddev 7.202416346134e-006
field sum 0.40180068030606
field sqrsum 6.1103979093045e-006
field min 4e-007
field max 5.4742398e-005
statistic Basic.rack[1].node[6].app 	hops
field count 40013
field mean 3.0064978881863
field stddev 0.70534283236837
field sum 120299
field sqrsum 381585
field min 2
field max 4
statistic Basic.rack[1].node[7].app 	throughput
field count 40221
field mean 20111
field stddev 11610.946925208
field sum 808884531
field sqrsum 21689699442411
field min 1
field max 40221
statistic Basic.rack[1].node[7].app 	"End-to-End Delay"
field count 40221
field mean 1.0011660510034e-005
field stddev 7.1779038510818e-006
field sum 0.40267899737406
field sqrsum 6.1037124708577e-006
field min 4e-007
field max 5.0134796e-005
statistic Basic.rack[1].node[7].app 	hops
field count 40221
field mean 3.0044752741105
field stddev 0.70593129749586
field sum 120843
field sqrsum 383113
field min 2
field max 4
statistic Basic.rack[1].node[8].app 	throughput
field count 39834
field mean 19917.5
field stddev 11499.229648111
field sum 793393695
field sqrsum 21069627428985
field min 1
field max 39834
statistic Basic.rack[1].node[8].app 	"End-to-End Delay"
field count 39834
field mean 9.9799297900552e-006
field stddev 7.1759957040314e-006
field sum 0.39754052325706
field sqrsum 6.0186234338829e-006
field min 4e-007
field max 5.2504795e-005
statistic Basic.rack[1].node[8].app 	hops
field count 39834
field mean 3.0008284380178
field stddev 0.7054801367303
field sum 119535
field sqrsum 378529
field min 2
field max 4
statistic Basic.rack[1].node[9].app 	throughput
field count 39870
field mean 19935.5
field stddev 11509.621952957
field sum 794828385
field sqrsum 21126803416095
field min 1
field max 39870
statistic Basic.rack[1].node[9].app 	"End-to-End Delay"
field count 39870
field mean 1.0006536751669e-005
field stddev 7.2419590170947e-006
field sum 0.39896062028906
field sqrsum 6.0831825034794e-006
field min 4e-007
field max 6.0078971e-005
statistic Basic.rack[1].node[9].app 	hops
field count 39870
field mean 3.0012039127163
field stddev 0.70890365225185
field sum 119658
field sqrsum 379154
field min 2
field max 4
statistic Basic.rack[1].eps.queue[0] 	dropsum
field count 0
field mean nan
field stddev nan
field sum 0
field sqrsum 0
field min nan
field max nan
statistic Basic.rack[1].eps.queue[1] 	dropsum
field count 0
field mean nan
field stddev nan
field sum 0
field sqrsum 0
field min nan
field max nan
statistic Basic.rack[1].eps.queue[2] 	dropsum
field count 0
field mean nan
field stddev nan
field sum 0
field sqrsum 0
field min nan
field max nan
statistic Basic.rack[1].eps.queue[3] 	dropsum
field count 0
field mean nan
field stddev nan
field sum 0
field sqrsum 0
field min nan
field max nan
statistic Basic.rack[2].node[0].app 	throughput
field count 39618
field mean 19809.5
field stddev 11436.875819034
field sum 784812771
field sqrsum 20728736511909
field min 1
field max 39618
statistic Basic.rack[2].node[0].app 	"End-to-End Delay"
field count 39618
field mean 7.5766888038282e-006
field stddev 8.0000751639873e-006
field sum 0.30017325703007
field sqrsum 4.8098550003192e-006
field min 4e-007
field max 5.3605539e-005
statistic Basic.rack[2].node[0].app 	hops
field count 39618
field mean 3.2511737089202
field stddev 0.8266085425853
field sum 128805
field sqrsum 445837
field min 2
field max 4
statistic Basic.rack[2].node[1].app 	throughput
field count 39790
field mean 19895.5
field stddev 11486.527942188
field sum 791641945
field sqrsum 20999885875015
field min 1
field max 39790
statistic Basic.rack[2].node[1].app 	"End-to-End Delay"
field count 39790
field mean 7.6569183978656e-006
field stddev 8.0028597457502e-006
field sum 0.30466878305107
field sqrsum 4.8811409183778e-006
field min 4e-007
field max 4.9810791e-005
statistic Basic.rack[2].node[1].app 	hops
field count 39790
field mean 3.2487559688364
field stddev 0.82919978249193
field sum 129268
field sqrsum 447318
field min 2
field max 4
statistic Basic.rack[2].node[2].app 	throughput
field count 40098
field mean 20049.5
field stddev 11575.43988365
field sum 803944851
field sqrsum 21491321738549
field min 1
field max 40098
statistic Basic.rack[2].node[2].app 	"End-to-End Delay"
field count 40098
field mean 7.5619048883505e-006
field stddev 7.9777746348338e-006
field sum 0.30321726221308
field sqrsum 4.8448691764772e-006
field min 4e-007
field max 5.1527252e-005
statistic Basic.rack[2].node[2].app 	hops
field count 40098
field mean 3.2487904633648
field stddev 0.82944758661226
field sum 130270
field sqrsum 450806
field min 2
field max 4
statistic Basic.rack[2].node[3].app 	throughput
field count 39865
field mean 19933
field stddev 11508.178577284
field sum 794629045
field sqrsum 21118856128965
field min 1
field max 39865
statistic Basic.rack[2].node[3].app 	"End-to-End Delay"
field count 39865
field mean 7.530131758286e-006
field stddev 8.0087621562609e-006
field sum 0.30018870254407
field sqrsum 4.8173482566345e-006
field min 4e-007
field max 5.3560095e-005
statistic Basic.rack[2].node[3].app 	hops
field count 39865
field mean 3.2515238931393
field stddev 0.8297681602511
field sum 129622
field sqrsum 448916
field min 2
field max 4
statistic Basic.rack[2].node[4].app 	throughput
field count 39809
field mean 19905
field stddev 11492.012769746
field sum 792398145
field sqrsum 21029982635585
field min 1
field max 39809
statistic Basic.rack[2].node[4].app 	"End-to-End Delay"
field count 39809
field mean 7.5629833553486e-006
field stddev 7.976355718533e-006
field sum 0.30107480439307
field sqrsum 4.8096982841773e-006
field min 4e-007
field max 5.2479955e-005
statistic Basic.rack[2].node[4].app 	hops
field count 39809
field mean 3.246175487955
field stddev 0.82993566791217
field sum 129227
field sqrsum 446913
field min 2
field max 4
statistic Basic.rack[2].node[5].app 	throughput
field count 39747
field mean 19874
field stddev 11474.114911399
field sum 789931878
field sqrsum 20931878213870
field min 1
field max 39747
statistic Basic.rack[2].node[5].app 	"End-to-End Delay"
field count 39747
field mean 7.5383852661351e-006
field stddev 8.0018090691513e-006
field sum 0.29962819917307
field sqrsum 4.8036073842426e-006
field min 4e-007
field max 5.1481616e-005
statistic Basic.rack[2].node[5].app 	hops
field count 39747
field mean 3.2488238106021
field stddev 0.83042598665157
field sum 129131
field sqrsum 446933
field min 2
field max 4
statistic Basic.rack[2].node[6].app 	throughput
field count 39903
field mean 19952
field stddev 11519.1482324
field sum 796144656
field sqrsum 21179305520464
field min 1
field max 39903
statistic Basic.rack[2].node[6].app 	"End-to-End Delay"
field count 39903
field mean 7.5730940933782e-006
field stddev 8.0047078053182e-006
field sum 0.30218917360807
field sqrsum 4.8452415436643e-006
field min 4e-007
field max 4.8115174e-005
statistic Basic.rack[2].node[6].app 	hops
field count 39903
field mean 3.2501566298273
field stddev 0.83009735211049
field sum 129691
field sqrsum 449011
field min 2
field max 4
statistic Basic.rack[2].node[7].app 	throughput
field count 39992
field mean 19996.5
field stddev 11544.840319381
field sum 799700028
field sqrsum 21321335579860
field min 1
field max 39992
statistic Basic.rack[2].node[7].app 	"End-to-End Delay"
field count 39992
field mean 7.5358232019423e-006
field stddev 7.9818419440641e-006
field sum 0.30137264149208
field sqrsum 4.8189095887801e-006
field min 4e-007
field max 6.415254e-005
statistic Basic.rack[2].node[7].app 	hops
field count 39992
field mean 3.2431486297259
field stddev 0.83078027310632
field sum 129700
field sqrsum 448238
field min 2
field max 4
statistic Basic.rack[2].node[8].app 	throughput
field count 39798
field mean 19899.5
field stddev 11488.837343265
field sum 791960301
field sqrsum 21012554692899
field min 1
field max 39798
statistic Basic.rack[2].node[8].app 	"End-to-End Delay"
field count 39798
field mean 7.5881495004792e-006
field stddev 7.9949366874004e-006
field sum 0.30199317382007
field sqrsum 4.8353542969275e-006
field min 4e-007
field max 5.3577281e-005
statistic Basic.rack[2].node[8].app 	hops
field count 39798
field mean 3.2502135785718
field stddev 0.82736529797681
field sum 129352
field sqrsum 447664
field min 2
field max 4
statistic Basic.rack[2].node[9].app 	throughput
field count 39792
field mean 19896.5
field stddev 11487.105292457
field sum 791721528
field sqrsum 21003052601960
field min 1
field max 39792
statistic Basic.rack[2].node[9].app 	"End-to-End Delay"
field count 39792
field mean 7.5649228761829e-006
field stddev 8.0449662763262e-006
field sum 0.30102341108907
field sqrsum 4.8525513944844e-006
field min 4e-007
field max 5.3406049e-005
statistic Basic.rack[2].node[9].app 	hops
field count 39792
field mean 3.24623039807
field stddev 0.83108046784311
field sum 129174
field sqrsum 446812
field min 2
field max 4
statistic Basic.rack[2].eps.queue[0] 	dropsum
field count 0
field mean nan
field stddev nan
field sum 0
field sqrsum 0
field min nan
field max nan
statistic Basic.rack[2].eps.queue[1] 	dropsum
field count 0
field mean nan
field stddev nan
field sum 0
field sqrsum 0
field min nan
field max nan
statistic Basic.rack[2].eps.queue[2] 	dropsum
field count 0
field mean nan
field stddev nan
field sum 0
field sqrsum 0
field min nan
field max nan
statistic Basic.rack[2].eps.queue[3] 	dropsum
field count 0
field mean nan
field stddev nan
field sum 0
field sqrsum 0
field min nan
field max nan
statistic Basic.rack[3].node[0].app 	throughput
field count 39856
field mean 19928.5
field stddev 11505.580501073
field sum 794270296
field sqrsum 21104556035016
field min 1
field max 39856
statistic Basic.rack[3].node[0].app 	"End-to-End Delay"
field count 39856
field mean 7.5806332898201e-006
field stddev 7.9828939558187e-006
field sum 0.30213372039907
field sqrsum 4.8301884188213e-006
field min 4e-007
field max 6.5685609e-005
statistic Basic.rack[3].node[0].app 	hops
field count 39856
field mean 3.2525090325171
field stddev 0.82710252374695
field sum 129632
field sqrsum 448894
field min 2
field max 4
statistic Basic.rack[3].node[1].app 	throughput
field count 40263
field mean 20132
field stddev 11623.071280862
field sum 810574716
field sqrsum 21757716718444
field min 1
field max 40263
statistic Basic.rack[3].node[1].app 	"End-to-End Delay"
field count 40263
field mean 7.606239152524e-006
field stddev 7.9963800549322e-006
field sum 0.30625000699808
field sqrsum 4.9038473816297e-006
field min 4e-007
field max 4.7452095e-005
statistic Basic.rack[3].node[1].app 	hops
field count 40263
field mean 3.2463303777662
field stddev 0.83060430700236
field sum 130707
field sqrsum 452095
field min 2
field max 4
statistic Basic.rack[3].node[2].app 	throughput
field count 39975
field mean 19988
field stddev 11539.932842092
field sum 799020300
field sqrsum 21294157335100
field min 1
field max 39975
statistic Basic.rack[3].node[2].app 	"End-to-End Delay"
field count 39975
field mean 7.5003470353739e-006
field stddev 7.9582647528838e-006
field sum 0.29982637273907
field sqrsum 4.7805142775553e-006
field min 4e-007
field max 4.6907699e-005
statistic Basic.rack[3].node[2].app 	hops
field count 39975
field mean 3.2447779862414
field stddev 0.82969490837436
field sum 129710
field sqrsum 448398
field min 2
field max 4
statistic Basic.rack[3].node[3].app 	throughput
field count 39926
field mean 19963.5
field stddev 11525.787760496
field sum 797062701
field sqrsum 21215949287651
field min 1
field max 39926
statistic Basic.rack[3].node[3].app 	"End-to-End Delay"
field count 39926
field mean 7.5801893453908e-006
field stddev 7.9810757906006e-006
field sum 0.30264663980407
field sqrsum 4.8372443476654e-006
field min 4e-007
field max 5.1442527e-005
statistic Basic.rack[3].node[3].app 	hops
field count 39926
field mean 3.2524670640685
field stddev 0.82795750973455
field sum 129858
field sqrsum 449728
field min 2
field max 4
statistic Basic.rack[3].node[4].app 	throughput
field count 40096
field mean 20048.5
field stddev 11574.862533381
field sum 803864656
field sqrsum 21488106119536
field min 1
field max 40096
statistic Basic.rack[3].node[4].app 	"End-to-End Delay"
field count 40096
field mean 7.6249950733508e-006
field stddev 8.049422353513e-006
field sum 0.30573180246107
field sqrsum 4.9290868505631e-006
field min 4e-007
field max 5.1897959e-005
statistic Basic.rack[3].node[4].app 	hops
field count 40096
field mean 3.2492268555467
field stddev 0.82983517223722
field sum 130281
field sqrsum 450923
field min 2
field max 4
statistic Basic.rack[3].node[5].app 	throughput
field count 40159
field mean 20080
field stddev 11593.049066862
field sum 806392720
field sqrsum 21589552292560
field min 1
field max 40159
statistic Basic.rack[3].node[5].app 	"End-to-End Delay"
field count 40159
field mean 7.5478087454885e-006
field stddev 8.0341228280283e-006
field sum 0.30311245141007
field sqrsum 4.8799184427325e-006
field min 4e-007
field max 4.6716638e-005
statistic Basic.rack[3].node[5].app 	hops
field count 40159
field mean 3.2550362309818
field stddev 0.83112540196628
field sum 130719
field sqrsum 453235
field min 2
field max 4
statistic Basic.rack[3].node[6].app 	throughput
field count 39930
field mean 19965.5
field stddev 11526.942461034
field sum 797222415
field sqrsum 21222326428105
field min 1
field max 39930
statistic Basic.rack[3].node[6].app 	"End-to-End Delay"
field count 39930
field mean 7.6148856550231e-006
field stddev 8.0260319448635e-006
field sum 0.30406238420507
field sqrsum 4.8875142185108e-006
field min 4e-007
field max 5.1281361e-005
statistic Basic.rack[3].node[6].app 	hops
field count 39930
field mean 3.2503631354871
field stddev 0.82814269569879
field sum 129787
field sqrsum 449239
field min 2
field max 4
statistic Basic.rack[3].node[7].app 	throughput
field count 39851
field mean 19926
field stddev 11504.1371254
field sum 794071026
field sqrsum 21096614328426
field min 1
field max 39851
statistic Basic.rack[3].node[7].app 	"End-to-End Delay"
field count 39851
field mean 7.593193440844e-006
field stddev 8.0145055940183e-006
field sum 0.30259635181107
field sqrsum 4.8573297854697e-006
field min 4e-007
field max 4.8576946e-005
statistic Basic.rack[3].node[7].app 	hops
field count 39851
field mean 3.2527163684726
field stddev 0.82938343039128
field sum 129624
field sqrsum 449042
field min 2
field max 4
statistic Basic.rack[3].node[8].app 	throughput
field count 40209
field mean 20105
field stddev 11607.482823593
field sum 808401945
field sqrsum 21670292004985
field min 1
field max 40209
statistic Basic.rack[3].node[8].app 	"End-to-End Delay"
field count 40209
field mean 7.6483342414155e-006
field stddev 8.0048068039998e-006
field sum 0.30753187151308
field sqrsum 4.9285118238442e-006
field min 4e-007
field max 4.7153305e-005
statistic Basic.rack[3].node[8].app 	hops
field count 40209
field mean 3.2535502002039
field stddev 0.82773103821866
field sum 130822
field sqrsum 453184
field min 2
field max 4
statistic Basic.rack[3].node[9].app 	throughput
field count 40052
field mean 20026.5
field stddev 11562.160827458
field sum 802101378
field sqrsum 21417443628230
field min 1
field max 40052
statistic Basic.rack[3].node[9].app 	"End-to-End Delay"
field count 40052
field mean 7.5834194421022e-006
field stddev 7.9897119736461e-006
field sum 0.30373111549508
field sqrsum 4.8599959536582e-006
field min 4e-007
field max 6.4679787e-005
statistic Basic.rack[3].node[9].app 	hops
field count 40052
field mean 3.2512483771098
field stddev 0.82788484287035
field sum 130219
field sqrsum 450825
field min 2
field max 4
statistic Basic.rack[3].eps.queue[0] 	dropsum
field count 0
field mean nan
field stddev nan
field sum 0
field sqrsum 0
field min nan
field max nan
statistic Basic.rack[3].eps.queue[1] 	dropsum
field count 0
field mean nan
field stddev nan
field sum 0
field sqrsum 0
field min nan
field max nan
statistic Basic.rack[3].eps.queue[2] 	dropsum
field count 0
field mean nan
field stddev nan
field sum 0
field sqrsum 0
field min nan
field max nan
statistic Basic.rack[3].eps.queue[3] 	dropsum
field count 0
field mean nan
field stddev nan
field sum 0
field sqrsum 0
field min nan
field max nan
statistic Basic.rack[4].node[0].app 	throughput
field count 40278
field mean 20139.5
field stddev 11627.401407881
field sum 811178781
field sqrsum 21782043020339
field min 1
field max 40278
statistic Basic.rack[4].node[0].app 	"End-to-End Delay"
field count 40278
field mean 9.9361368257874e-006
field stddev 7.1845780099942e-006
field sum 0.40020771906906
field sqrsum 6.0555433333215e-006
field min 4e-007
field max 4.8969761e-005
statistic Basic.rack[4].node[0].app 	hops
field count 40278
field mean 2.996623466905
field stddev 0.70600059818555
field sum 120698
field sqrsum 381762
field min 2
field max 4
statistic Basic.rack[4].node[1].app 	throughput
field count 39827
field mean 19914
field stddev 11497.208922169
field sum 793114878
field sqrsum 21058521869030
field min 1
field max 39827
statistic Basic.rack[4].node[1].app 	"End-to-End Delay"
field count 39827
field mean 9.9903618781496e-006
field stddev 7.2014136637799e-006
field sum 0.39788614252106
field sqrsum 6.0404171979378e-006
field min 4e-007
field max 5.099942e-005
statistic Basic.rack[4].node[1].app 	hops
field count 39827
field mean 3.0014060813016
field stddev 0.70641260117985
field sum 119537
field sqrsum 378653
field min 2
field max 4
statistic Basic.rack[4].node[2].app 	throughput
field count 39843
field mean 19922
field stddev 11501.827724323
field sum 793752246
field sqrsum 21083911742334
field min 1
field max 39843
statistic Basic.rack[4].node[2].app 	"End-to-End Delay"
field count 39843
field mean 9.9437427655564e-006
field stddev 7.217965939196e-006
field sum 0.39618854300807
field sqrsum 6.0153266032052e-006
field min 4e-007
field max 6.0756567e-005
statistic Basic.rack[4].node[2].app 	hops
field count 39843
field mean 2.9970885726476
field stddev 0.70796990142017
field sum 119413
field sqrsum 377861
field min 2
field max 4
statistic Basic.rack[4].node[3].app 	throughput
field count 39936
field mean 19968.5
field stddev 11528.674511842
field sum 797462016
field sqrsum 21231894534656
field min 1
field max 39936
statistic Basic.rack[4].node[3].app 	"End-to-End Delay"
field count 39936
field mean 9.9847841016392e-006
field stddev 7.2289507297945e-006
field sum 0.39875233788306
field sqrsum 6.0683683975756e-006
field min 4e-007
field max 5.6883934e-005
statistic Basic.rack[4].node[3].app 	hops
field count 39936
field mean 3.0002253605769
field stddev 0.70787655652323
field sum 119817
field sqrsum 379489
field min 2
field max 4
statistic Basic.rack[4].node[4].app 	throughput
field count 40055
field mean 20028
field stddev 11563.026852862
field sum 802221540
field sqrsum 21422256596980
field min 1
field max 40055
statistic Basic.rack[4].node[4].app 	"End-to-End Delay"
field count 40055
field mean 9.9597838663854e-006
field stddev 7.1820700153849e-006
field sum 0.39893914276807
field sqrsum 6.0394182610507e-006
field min 4e-007
field max 5.0929675e-005
statistic Basic.rack[4].node[4].app 	hops
field count 40055
field mean 2.99875171639
field stddev 0.70486007279494
field sum 120115
field sqrsum 380095
field min 2
field max 4
statistic Basic.rack[4].node[5].app 	throughput
field count 40019
field mean 20010
field stddev 11552.634548015
field sum 800780190
field sqrsum 21364548542470
field min 1
field max 40019
statistic Basic.rack[4].node[5].app 	"End-to-End Delay"
field count 40019
field mean 1.0029310745672e-005
field stddev 7.1934802086444e-006
field sum 0.40136298673106
field sqrsum 6.0961718470585e-006
field min 4e-007
field max 6.1432556e-005
statistic Basic.rack[4].node[5].app 	hops
field count 40019
field mean 3.005797246308
field stddev 0.7054023386442
field sum 120289
field sqrsum 381477
field min 2
field max 4
statistic Basic.rack[4].node[6].app 	throughput
field count 40348
field mean 20174.5
field stddev 11647.608667304
field sum 814000726
field sqrsum 21895805528674
field min 1
field max 40348
statistic Basic.rack[4].node[6].app 	"End-to-End Delay"
field count 40348
field mean 9.952343668585e-006
field stddev 7.2516237559726e-006
field sum 0.40155716234007
field sqrsum 6.1181241244606e-006
field min 4e-007
field max 6.1601354e-005
statistic Basic.rack[4].node[6].app 	hops
field count 40348
field mean 2.996505402994
field stddev 0.70856004274276
field sum 120903
field sqrsum 382543
field min 2
field max 4
statistic Basic.rack[4].node[7].app 	throughput
field count 40315
field mean 20158
field stddev 11638.082387862
field sum 812669770
field sqrsum 21842125408290
field min 1
field max 40315
statistic Basic.rack[4].node[7].app 	"End-to-End Delay"
field count 40315
field mean 9.9908029450592e-006
field stddev 7.1941727895283e-006
field sum 0.40277922073006
field sqrsum 6.1105841320496e-006
field min 4e-007
field max 6.4206057e-005
statistic Basic.rack[4].node[7].app 	hops
field count 40315
field mean 3.0008433585514
field stddev 0.70603552795617
field sum 120979
field sqrsum 383135
field min 2
field max 4
statistic Basic.rack[4].node[8].app 	throughput
field count 39827
field mean 19914
field stddev 11497.208922169
field sum 793114878
field sqrsum 21058521869030
field min 1
field max 39827
statistic Basic.rack[4].node[8].app 	"End-to-End Delay"
field count 39827
field mean 9.9516293069039e-006
field stddev 7.1713354408749e-006
field sum 0.39634354040606
field sqrsum 5.99243759148e-006
field min 4e-007
field max 5.7521358e-005
statistic Basic.rack[4].node[8].app 	hops
field count 39827
field mean 2.9997991312426
field stddev 0.70797620841527
field sum 119473
field sqrsum 378357
field min 2
field max 4
statistic Basic.rack[4].node[9].app 	throughput
field count 40051
field mean 20026
field stddev 11561.872152323
field sum 802061326
field sqrsum 21415839465526
field min 1
field max 40051
statistic Basic.rack[4].node[9].app 	"End-to-End Delay"
field count 40051
field mean 9.9436478849483e-006
field stddev 7.2008796004857e-006
field sum 0.39825304144006
field sqrsum 6.0367873273684e-006
field min 4e-007
field max 5.5099731e-005
statistic Basic.rack[4].node[9].app 	hops
field count 40051
field mean 2.9930338818007
field stddev 0.70310629583762
field sum 119874
field sqrsum 378586
field min 2
field max 4
statistic Basic.rack[4].eps.queue[0] 	dropsum
field count 0
field mean nan
field stddev nan
field sum 0
field sqrsum 0
field min nan
field max nan
statistic Basic.rack[4].eps.queue[1] 	dropsum
field count 0
field mean nan
field stddev nan
field sum 0
field sqrsum 0
field min nan
field max nan
statistic Basic.rack[4].eps.queue[2] 	dropsum
field count 0
field mean nan
field stddev nan
field sum 0
field sqrsum 0
field min nan
field max nan
statistic Basic.rack[4].eps.queue[3] 	dropsum
field count 0
field mean nan
field stddev nan
field sum 0
field sqrsum 0
field min nan
field max nan
statistic Basic.rack[5].node[0].app 	throughput
field count 39882
field mean 19941.5
field stddev 11513.086054573
field sum 795306903
field sqrsum 21145885039265
field min 1
field max 39882
statistic Basic.rack[5].node[0].app 	"End-to-End Delay"
field count 39882
field mean 1.002608226556e-005
field stddev 7.2154078103848e-006
field sum 0.39986021291506
field sqrsum 6.0853203931427e-006
field min 4e-007
field max 6.5287442e-005
statistic Basic.rack[5].node[0].app 	hops
field count 39882
field mean 3.0051150895141
field stddev 0.70494847065133
field sum 119850
field sqrsum 379982
field min 2
field max 4
statistic Basic.rack[5].node[1].app 	throughput
field count 40166
field mean 20083.5
field stddev 11595.069792804
field sum 806673861
field sqrsum 21600843758571
field min 1
field max 40166
statistic Basic.rack[5].node[1].app 	"End-to-End Delay"
field count 40166
field mean 9.9906022231754e-006
field stddev 7.2092615396637e-006
field sum 0.40128252889606
field sqrsum 6.0965678227727e-006
field min 4e-007
field max 5.6460543e-005
statistic Basic.rack[5].node[1].app 	hops
field count 40166
field mean 3.0010954538665
field stddev 0.70653353617861
field sum 120542
field sqrsum 381808
field min 2
field max 4
statistic Basic.rack[5].node[2].app 	throughput
field count 40146
field mean 20073.5
field stddev 11589.296290112
field sum 805870731
field sqrsum 21568592868061
field min 1
field max 40146
statistic Basic.rack[5].node[2].app 	"End-to-End Delay"
field count 40146
field mean 9.9980568825304e-006
field stddev 7.2288623698517e-006
field sum 0.40138199160607
field sqrsum 6.1108752156096e-006
field min 4e-007
field max 5.3463364e-005
statistic Basic.rack[5].node[2].app 	hops
field count 40146
field mean 3.0014447267474
field stddev 0.70934751691931
field sum 120496
field sqrsum 381862
field min 2
field max 4
statistic Basic.rack[5].node[3].app 	throughput
field count 39789
field mean 19895
field stddev 11486.239267053
field sum 791602155
field sqrsum 20998302630915
field min 1
field max 39789
statistic Basic.rack[5].node[3].app 	"End-to-End Delay"
field count 39789
field mean 9.9236042100094e-006
field stddev 7.1891485423432e-006
field sum 0.39485028791206
field sqrsum 5.9747352723687e-006
field min 4e-007
field max 5.3113254e-005
statistic Basic.rack[5].node[3].app 	hops
field count 39789
field mean 2.995350473749
field stddev 0.70682486039502
field sum 119182
field sqrsum 376870
field min 2
field max 4
statistic Basic.rack[5].node[4].app 	throughput
field count 40014
field mean 20007.5
field stddev 11551.191172342
field sum 800580105
field sqrsum 21356541741015
field min 1
field max 40014
statistic Basic.rack[5].node[4].app 	"End-to-End Delay"
field count 40014
field mean 9.9726630828725e-006
field stddev 7.1507063689121e-006
field sum 0.39904614059806
field sqrsum 6.0255215015015e-006
field min 4e-007
field max 5.2881865e-005
statistic Basic.rack[5].node[4].app 	hops
field count 40014
field mean 3.0024491428
field stddev 0.70504074194659
field sum 120140
field sqrsum 380604
field min 2
field max 4
statistic Basic.rack[5].node[5].app 	throughput
field count 39937
field mean 19969
field stddev 11528.963186977
field sum 797501953
field sqrsum 21233489498625
field min 1
field max 39937
statistic Basic.rack[5].node[5].app 	"End-to-End Delay"
field count 39937
field mean 9.9928492767124e-006
field stddev 7.1867722172156e-006
field sum 0.39908442156406
field sqrsum 6.0506726889856e-006
field min 4e-007
field max 5.6667924e-005
statistic Basic.rack[5].node[5].app 	hops
field count 39937
field mean 3.0024037859629
field stddev 0.70515233433427
field sum 119907
field sqrsum 379867
field min 2
field max 4
statistic Basic.rack[5].node[6].app 	throughput
field count 39723
field mean 19862
field stddev 11467.186708169
field sum 788978226
field sqrsum 20893984373674
field min 1
field max 39723
statistic Basic.rack[5].node[6].app 	"End-to-End Delay"
field count 39723
field mean 1.0027468691566e-005
field stddev 7.1756746308517e-006
field sum 0.39832113883506
field sqrsum 6.0394506999899e-006
field min 4e-007
field max 4.943652e-005
statistic Basic.rack[5].node[6].app 	hops
field count 39723
field mean 3.0047579487954
field stddev 0.70305605682209
field sum 119358
field sqrsum 378276
field min 2
field max 4
statistic Basic.rack[5].node[7].app 	throughput
field count 40331
field mean 20166
field stddev 11642.701190016
field sum 813314946
field sqrsum 21868141163066
field min 1
field max 40331
statistic Basic.rack[5].node[7].app 	"End-to-End Delay"
field count 40331
field mean 1.0004286496667e-005
field stddev 7.2419180583425e-006
field sum 0.40348287869706
field sqrsum 6.1516803759991e-006
field min 4e-007
field max 5.2817936e-005
statistic Basic.rack[5].node[7].app 	hops
field count 40331
field mean 3.0014380997248
field stddev 0.70694750362325
field sum 121051
field sqrsum 383483
field min 2
field max 4
statistic Basic.rack[5].node[8].app 	throughput
field count 39946
field mean 19973.5
field stddev 11531.561263188
field sum 797861431
field sqrsum 21247847768961
field min 1
field max 39946
statistic Basic.rack[5].node[8].app 	"End-to-End Delay"
field count 39946
field mean 9.9751170149217e-006
field stddev 7.2011029644767e-006
field sum 0.39846602427806
field sqrsum 6.0461285012293e-006
field min 4e-007
field max 5.470868e-005
statistic Basic.rack[5].node[8].app 	hops
field count 39946
field mean 3.00080108146
field stddev 0.70720368181681
field sum 119870
field sqrsum 379684
field min 2
field max 4
statistic Basic.rack[5].node[9].app 	throughput
field count 39847
field mean 19924
field stddev 11502.982424861
field sum 793911628
field sqrsum 21090262397820
field min 1
field max 39847
statistic Basic.rack[5].node[9].app 	"End-to-End Delay"
field count 39847
field mean 9.9259453925781e-006
field stddev 7.1996794472285e-006
field sum 0.39551914605806
field sqrsum 5.9913341620472e-006
field min 4e-007
field max 5.2558625e-005
statistic Basic.rack[5].node[9].app 	hops
field count 39847
field mean 2.9960348332371
field stddev 0.70650979365621
field sum 119383
field sqrsum 377565
field min 2
field max 4
statistic Basic.rack[5].eps.queue[0] 	dropsum
field count 0
field mean nan
field stddev nan
field sum 0
field sqrsum 0
field min nan
field max nan
statistic Basic.rack[5].eps.queue[1] 	dropsum
field count 0
field mean nan
field stddev nan
field sum 0
field sqrsum 0
field min nan
field max nan
statistic Basic.rack[5].eps.queue[2] 	dropsum
field count 0
field mean nan
field stddev nan
field sum 0
field sqrsum 0
field min nan
field max nan
statistic Basic.rack[5].eps.queue[3] 	dropsum
field count 0
field mean nan
field stddev nan
field sum 0
field sqrsum 0
field min nan
field max nan
statistic Basic.rack[6].node[0].app 	throughput
field count 39876
field mean 19938.5
field stddev 11511.354003765
field sum 795067626
field sqrsum 21136342792126
field min 1
field max 39876
statistic Basic.rack[6].node[0].app 	"End-to-End Delay"
field count 39876
field mean 7.5593798047715e-006
field stddev 8.0078917077715e-006
field sum 0.30143782909507
field sqrsum 4.8357204305908e-006
field min 4e-007
field max 5.0965422e-005
statistic Basic.rack[6].node[0].app 	hops
field count 39876
field mean 3.2505767880429
field stddev 0.8293402859746
field sum 129620
field sqrsum 448766
field min 2
field max 4
statistic Basic.rack[6].node[1].app 	throughput
field count 40100
field mean 20050.5
field stddev 11576.017233919
field sum 804025050
field sqrsum 21494537678350
field min 1
field max 40100
statistic Basic.rack[6].node[1].app 	"End-to-End Delay"
field count 40100
field mean 7.5762811505504e-006
field stddev 8.0020558904228e-006
field sum 0.30380887413707
field sqrsum 4.8693966423815e-006
field min 4e-007
field max 4.6504362e-005
statistic Basic.rack[6].node[1].app 	hops
field count 40100
field mean 3.248753117207
field stddev 0.82833808619039
field sum 130275
field sqrsum 450745
field min 2
field max 4
statistic Basic.rack[6].node[2].app 	throughput
field count 40259
field mean 20130
field stddev 11621.916580324
field sum 810413670
field sqrsum 21751232764910
field min 1
field max 40259
statistic Basic.rack[6].node[2].app 	"End-to-End Delay"
field count 40259
field mean 7.6037382126748e-006
field stddev 8.0170275804153e-006
field sum 0.30611889670408
field sqrsum 4.9151395661523e-006
field min 4e-007
field max 5.4249619e-005
statistic Basic.rack[6].node[2].app 	hops
field count 40259
field mean 3.2554956655655
field stddev 0.82667491492924
field sum 131063
field sqrsum 454187
field min 2
field max 4
statistic Basic.rack[6].node[3].app 	throughput
field count 40282
field mean 20141.5
field stddev 11628.55610842
field sum 811339903
field sqrsum 21788533095065
field min 1
field max 40282
statistic Basic.rack[6].node[3].app 	"End-to-End Delay"
field count 40282
field mean 7.6421298287592e-006
field stddev 8.0237494079605e-006
field sum 0.30784027376208
field sqrsum 4.9458684569122e-006
field min 4e-007
field max 5.0391666e-005
statistic Basic.rack[6].node[3].app 	hops
field count 40282
field mean 3.2482250136537
field stddev 0.82708485956601
field sum 130845
field sqrsum 452569
field min 2
field max 4
statistic Basic.rack[6].node[4].app 	throughput
field count 39885
field mean 19943
field stddev 11513.952079977
field sum 795426555
field sqrsum 21150657239635
field min 1
field max 39885
statistic Basic.rack[6].node[4].app 	"End-to-End Delay"
field count 39885
field mean 7.6219378559627e-006
field stddev 8.0510215212155e-006
field sum 0.30400099138507
field sqrsum 4.902315567977e-006
field min 4e-007
field max 5.1624823e-005
statistic Basic.rack[6].node[4].app 	hops
field count 39885
field mean 3.2540554093017
field stddev 0.83003880043544
field sum 129788
field sqrsum 449816
field min 2
field max 4
statistic Basic.rack[6].node[5].app 	throughput
field count 39790
field mean 19895.5
field stddev 11486.527942188
field sum 791641945
field sqrsum 20999885875015
field min 1
field max 39790
statistic Basic.rack[6].node[5].app 	"End-to-End Delay"
field count 39790
field mean 7.551222014151e-006
field stddev 8.0184455214479e-006
field sum 0.30046312394307
field sqrsum 4.8271161553061e-006
field min 4e-007
field max 6.9933607e-005
statistic Basic.rack[6].node[5].app 	hops
field count 39790
field mean 3.2479266147273
field stddev 0.83061388358393
field sum 129235
field sqrsum 447197
field min 2
field max 4
statistic Basic.rack[6].node[6].app 	throughput
field count 40202
field mean 20101.5
field stddev 11605.46209765
field sum 808120503
field sqrsum 21658976347905
field min 1
field max 40202
statistic Basic.rack[6].node[6].app 	"End-to-End Delay"
field count 40202
field mean 7.6407036552429e-006
field stddev 8.0492512805647e-006
field sum 0.30717156834807
field sqrsum 4.9516476518525e-006
field min 4e-007
field max 5.0718552e-005
statistic Basic.rack[6].node[6].app 	hops
field count 40202
field mean 3.2553604298294
field stddev 0.82871030692334
field sum 130872
field sqrsum 453644
field min 2
field max 4
statistic Basic.rack[6].node[7].app 	throughput
field count 39988
field mean 19994.5
field stddev 11543.685618842
field sum 799540066
field sqrsum 21314938619494
field min 1
field max 39988
statistic Basic.rack[6].node[7].app 	"End-to-End Delay"
field count 39988
field mean 7.6864926012322e-006
field stddev 8.019278033332e-006
field sum 0.30736746613807
field sqrsum 4.9340945467027e-006
field min 4e-007
field max 4.749561e-005
statistic Basic.rack[6].node[7].app 	hops
field count 39988
field mean 3.2562768830649
field stddev 0.82659780022321
field sum 130212
field sqrsum 451328
field min 2
field max 4
statistic Basic.rack[6].node[8].app 	throughput
field count 39999
field mean 20000
field stddev 11546.861045323
field sum 799980000
field sqrsum 21332533340000
field min 1
field max 39999
statistic Basic.rack[6].node[8].app 	"End-to-End Delay"
field count 39999
field mean 7.647046886199e-006
field stddev 8.0472809566896e-006
field sum 0.30587422840107
field sqrsum 4.9292542802373e-006
field min 4e-007
field max 4.8352711e-005
statistic Basic.rack[6].node[8].app 	hops
field count 39999
field mean 3.2504562614065
field stddev 0.82822552919304
field sum 130015
field sqrsum 450045
field min 2
field max 4
statistic Basic.rack[6].node[9].app 	throughput
field count 40055
field mean 20028
field stddev 11563.026852862
field sum 802221540
field sqrsum 21422256596980
field min 1
field max 40055
statistic Basic.rack[6].node[9].app 	"End-to-End Delay"
field count 40055
field mean 7.6067208320827e-006
field stddev 7.9944858026876e-006
field sum 0.30468720292907
field sqrsum 4.87759386114e-006
field min 4e-007
field max 5.2277529e-005
statistic Basic.rack[6].node[9].app 	hops
field count 40055
field mean 3.2536262638872
field stddev 0.82944649894465
field sum 130324
field sqrsum 451582
field min 2
field max 4
statistic Basic.rack[6].eps.queue[0] 	dropsum
field count 0
field mean nan
field stddev nan
field sum 0
field sqrsum 0
field min nan
field max nan
statistic Basic.rack[6].eps.queue[1] 	dropsum
field count 0
field mean nan
field stddev nan
field sum 0
field sqrsum 0
field min nan
field max nan
statistic Basic.rack[6].eps.queue[2] 	dropsum
field count 0
field mean nan
field stddev nan
field sum 0
field sqrsum 0
field min nan
field max nan
statistic Basic.rack[6].eps.queue[3] 	dropsum
field count 0
field mean nan
field stddev nan
field sum 0
field sqrsum 0
field min nan
field max nan
statistic Basic.rack[7].node[0].app 	throughput
field count 40244
field mean 20122.5
field stddev 11617.586453304
field sum 809809890
field sqrsum 21726929412070
field min 1
field max 40244
statistic Basic.rack[7].node[0].app 	"End-to-End Delay"
field count 40244
field mean 7.5958311953601e-006
field stddev 8.0011349351138e-006
field sum 0.30568663062607
field sqrsum 4.8982268678507e-006
field min 4e-007
field max 5.8431848e-005
statistic Basic.rack[7].node[0].app 	hops
field count 40244
field mean 3.2566096809462
field stddev 0.82699454758341
field sum 131059
field sqrsum 454331
field min 2
field max 4
statistic Basic.rack[7].node[1].app 	throughput
field count 40390
field mean 20195.5
field stddev 11659.733022958
field sum 815696245
field sqrsum 21964252789115
field min 1
field max 40390
statistic Basic.rack[7].node[1].app 	"End-to-End Delay"
field count 40390
field mean 7.5663730712076e-006
field stddev 8.0229054641065e-006
field sum 0.30560580834608
field sqrsum 4.9120468098154e-006
field min 4e-007
field max 4.9019693e-005
statistic Basic.rack[7].node[1].app 	hops
field count 40390
field mean 3.2485763802922
field stddev 0.83089906375568
field sum 131210
field sqrsum 454130
field min 2
field max 4
statistic Basic.rack[7].node[2].app 	throughput
field count 39976
field mean 19988.5
field stddev 11540.221517227
field sum 799060276
field sqrsum 21295755415676
field min 1
field max 39976
statistic Basic.rack[7].node[2].app 	"End-to-End Delay"
field count 39976
field mean 7.6585354250318e-006
field stddev 8.0439708803471e-006
field sum 0.30615761215107
field sqrsum 4.9313199825689e-006
field min 4e-007
field max 5.3625959e-005
statistic Basic.rack[7].node[2].app 	hops
field count 39976
field mean 3.2534520712427
field stddev 0.82754371983259
field sum 130060
field sqrsum 450520
field min 2
field max 4
statistic Basic.rack[7].node[3].app 	throughput
field count 39971
field mean 19986
field stddev 11538.778141554
field sum 798860406
field sqrsum 21287765812286
field min 1
field max 39971
statistic Basic.rack[7].node[3].app 	"End-to-End Delay"
field count 39971
field mean 7.5195243739728e-006
field stddev 7.9859153199542e-006
field sum 0.30056290875207
field sqrsum 4.8091706128676e-006
field min 4e-007
field max 5.3603881e-005
statistic Basic.rack[7].node[3].app 	hops
field count 39971
field mean 3.2479297490681
field stddev 0.83056774964987
field sum 129823
field sqrsum 449229
field min 2
field max 4
statistic Basic.rack[7].node[4].app 	throughput
field count 39975
field mean 19988
field stddev 11539.932842092
field sum 799020300
field sqrsum 21294157335100
field min 1
field max 39975
statistic Basic.rack[7].node[4].app 	"End-to-End Delay"
field count 39975
field mean 7.5397761378129e-006
field stddev 8.0035614620706e-006
field sum 0.30140255110907
field sqrsum 4.8331221239157e-006
field min 4e-007
field max 4.5002437e-005
statistic Basic.rack[7].node[4].app 	hops
field count 39975
field mean 3.2495559724828
field stddev 0.83009555388001
field sum 129901
field sqrsum 449665
field min 2
field max 4
statistic Basic.rack[7].node[5].app 	throughput
field count 39837
field mean 19919
field stddev 11500.095673515
field sum 793513203
field sqrsum 21074388149675
field min 1
field max 39837
statistic Basic.rack[7].node[5].app 	"End-to-End Delay"
field count 39837
field mean 7.5730615068673e-006
field stddev 7.970065092534e-006
field sum 0.30168805124907
field sqrsum 4.8151620734023e-006
field min 4e-007
field max 5.262278e-005
statistic Basic.rack[7].node[5].app 	hops
field count 39837
field mean 3.2479855410799
field stddev 0.82867014986824
field sum 129390
field sqrsum 447612
field min 2
field max 4
statistic Basic.rack[7].node[6].app 	throughput
field count 39962
field mean 19981.5
field stddev 11536.180065342
field sum 798500703
field sqrsum 21273389562425
field min 1
field max 39962
statistic Basic.rack[7].node[6].app 	"End-to-End Delay"
field count 39962
field mean 7.6338350230738e-006
field stddev 8.0438798199341e-006
field sum 0.30506331519207
field sqrsum 4.9144396659702e-006
field min 4e-007
field max 4.8296603e-005
statistic Basic.rack[7].node[6].app 	hops
field count 39962
field mean 3.2487112757119
field stddev 0.83008932522237
field sum 129825
field sqrsum 449299
field min 2
field max 4
statistic Basic.rack[7].node[7].app 	throughput
field count 39862
field mean 19931.5
field stddev 11507.312551881
field sum 794509453
field sqrsum 21114088713475
field min 1
field max 39862
statistic Basic.rack[7].node[7].app 	"End-to-End Delay"
field count 39862
field mean 7.6605889174671e-006
field stddev 8.0535305005861e-006
field sum 0.30536639542807
field sqrsum 4.9246451153982e-006
field min 4e-007
field max 4.6968398e-005
statistic Basic.rack[7].node[7].app 	hops
field count 39862
field mean 3.247503888415
field stddev 0.83002846797127
field sum 129452
field sqrsum 447858
field min 2
field max 4
statistic Basic.rack[7].node[8].app 	throughput
field count 40062
field mean 20031.5
field stddev 11565.047578804
field sum 802501953
field sqrsum 21433489661375
field min 1
field max 40062
statistic Basic.rack[7].node[8].app 	"End-to-End Delay"
field count 40062
field mean 7.5860537033367e-006
field stddev 8.0025715008642e-006
field sum 0.30391248346308
field sqrsum 4.8710489559113e-006
field min 4e-007
field max 6.8032845e-005
statistic Basic.rack[7].node[8].app 	hops
field count 40062
field mean 3.2528081473716
field stddev 0.82863855103833
field sum 130314
field sqrsum 451394
field min 2
field max 4
statistic Basic.rack[7].node[9].app 	throughput
field count 39955
field mean 19978
field stddev 11534.1593394
field sum 798220990
field sqrsum 21262212510630
field min 1
field max 39955
statistic Basic.rack[7].node[9].app 	"End-to-End Delay"
field count 39955
field mean 7.587536035742e-006
field stddev 8.0010824813845e-006
field sum 0.30316000230807
field sqrsum 4.8579854803046e-006
field min 4e-007
field max 4.4694424e-005
statistic Basic.rack[7].node[9].app 	hops
field count 39955
field mean 3.2557126767614
field stddev 0.82710114271687
field sum 130082
field sqrsum 450842
field min 2
field max 4
statistic Basic.rack[7].eps.queue[0] 	dropsum
field count 0
field mean nan
field stddev nan
field sum 0
field sqrsum 0
field min nan
field max nan
statistic Basic.rack[7].eps.queue[1] 	dropsum
field count 0
field mean nan
field stddev nan
field sum 0
field sqrsum 0
field min nan
field max nan
statistic Basic.rack[7].eps.queue[2] 	dropsum
field count 0
field mean nan
field stddev nan
field sum 0
field sqrsum 0
field min nan
field max nan
statistic Basic.rack[7].eps.queue[3] 	dropsum
field count 0
field mean nan
field stddev nan
field sum 0
field sqrsum 0
field min nan
field max nan
statistic Basic.rack[8].node[0].app 	throughput
field count 40281
field mean 20141
field stddev 11628.267433285
field sum 811299621
field sqrsum 21786910455541
field min 1
field max 40281
statistic Basic.rack[8].node[0].app 	"End-to-End Delay"
field count 40281
field mean 9.9219402700793e-006
field stddev 7.1753615460226e-006
field sum 0.39966567601906
field sqrsum 6.0393075258361e-006
field min 4e-007
field max 5.1568189e-005
statistic Basic.rack[8].node[0].app 	hops
field count 40281
field mean 2.9961023807751
field stddev 0.70711359370593
field sum 120686
field sqrsum 381728
field min 2
field max 4
statistic Basic.rack[8].node[1].app 	throughput
field count 39919
field mean 19960
field stddev 11523.767034554
field sum 796783240
field sqrsum 21204792366120
field min 1
field max 39919
statistic Basic.rack[8].node[1].app 	"End-to-End Delay"
field count 39919
field mean 9.9390564108837e-006
field stddev 7.2025469078492e-006
field sum 0.39675719286607
field sqrsum 6.0142055117898e-006
field min 4e-007
field max 5.8209924e-005
statistic Basic.rack[8].node[1].app 	hops
field count 39919
field mean 2.9962674415692
field stddev 0.70851265061452
field sum 119608
field sqrsum 378416
field min 2
field max 4
statistic Basic.rack[8].node[2].app 	throughput
field count 39947
field mean 19974
field stddev 11531.849938323
field sum 797901378
field sqrsum 21249443531770
field min 1
field max 39947
statistic Basic.rack[8].node[2].app 	"End-to-End Delay"
field count 39947
field mean 9.9282770145208e-006
field stddev 7.2089666334233e-006
field sum 0.39660488189906
field sqrsum 6.0135647928819e-006
field min 4e-007
field max 5.5328932e-005
statistic Basic.rack[8].node[2].app 	hops
field count 39947
field mean 2.9959946929682
field stddev 0.70813907606896
field sum 119681
field sqrsum 378595
field min 2
field max 4
statistic Basic.rack[8].node[3].app 	throughput
field count 39983
field mean 19992
field stddev 11542.242243169
field sum 799340136
field sqrsum 21306944218504
field min 1
field max 39983
statistic Basic.rack[8].node[3].app 	"End-to-End Delay"
field count 39983
field mean 9.9432542929761e-006
field stddev 7.1650257982146e-006
field sum 0.39756113639606
field sqrsum 6.0056311870494e-006
field min 4e-007
field max 5.5480578e-005
statistic Basic.rack[8].node[3].app 	hops
field count 39983
field mean 2.9988495110422
field stddev 0.70560096347833
field sum 119903
field sqrsum 379477
field min 2
field max 4
statistic Basic.rack[8].node[4].app 	throughput
field count 39891
field mean 19946
field stddev 11515.684130784
field sum 795665886
field sqrsum 21160203794246
field min 1
field max 39891
statistic Basic.rack[8].node[4].app 	"End-to-End Delay"
field count 39891
field mean 9.9170837270829e-006
field stddev 7.2174693844568e-006
field sum 0.39560238695706
field sqrsum 6.0011664616352e-006
field min 4e-007
field max 4.8967333e-005
statistic Basic.rack[8].node[4].app 	hops
field count 39891
field mean 2.9931062144343
field stddev 0.70735675409409
field sum 119398
field sqrsum 377330
field min 2
field max 4
statistic Basic.rack[8].node[5].app 	throughput
field count 40096
field mean 20048.5
field stddev 11574.862533381
field sum 803864656
field sqrsum 21488106119536
field min 1
field max 40096
statistic Basic.rack[8].node[5].app 	"End-to-End Delay"
field count 40096
field mean 1.000771612989e-005
field stddev 7.267337120543e-006
field sum 0.40126938594406
field sqrsum 6.1333750070266e-006
field min 4e-007
field max 5.617983e-005
statistic Basic.rack[8].node[5].app 	hops
field count 40096
field mean 3.0005486831604
field stddev 0.70715065640462
field sum 120310
field sqrsum 381046
field min 2
field max 4
statistic Basic.rack[8].node[6].app 	throughput
field count 39920
field mean 19960.5
field stddev 11524.055709688
field sum 796823160
field sqrsum 21206385972520
field min 1
field max 39920
statistic Basic.rack[8].node[6].app 	"End-to-End Delay"
field count 39920
field mean 1.002407902698e-005
field stddev 7.2375670641947e-006
field sum 0.40016123475706
field sqrsum 6.1022999485498e-006
field min 4e-007
field max 5.7864232e-005
statistic Basic.rack[8].node[6].app 	hops
field count 39920
field mean 3.001127254509
field stddev 0.70606887885928
field sum 119805
field sqrsum 379451
field min 2
field max 4
statistic Basic.rack[8].node[7].app 	throughput
field count 39898
field mean 19949.5
field stddev 11517.704856727
field sum 795945151
field sqrsum 21171345071449
field min 1
field max 39898
statistic Basic.rack[8].node[7].app 	"End-to-End Delay"
field count 39898
field mean 1.0006148169885e-005
field stddev 7.2187318645549e-006
field sum 0.39922529968207
field sqrsum 6.0737437518366e-006
field min 4e-007
field max 6.2252087e-005
statistic Basic.rack[8].node[7].app 	hops
field count 39898
field mean 3.0019800491253
field stddev 0.70725464148872
field sum 119773
field sqrsum 379513
field min 2
field max 4
statistic Basic.rack[8].node[8].app 	throughput
field count 39937
field mean 19969
field stddev 11528.963186977
field sum 797501953
field sqrsum 21233489498625
field min 1
field max 39937
statistic Basic.rack[8].node[8].app 	"End-to-End Delay"
field count 39937
field mean 9.9763954939545e-006
field stddev 7.2458486506664e-006
field sum 0.39842730684206
field sqrsum 6.0716011467314e-006
field min 4e-007
field max 5.6706844e-005
statistic Basic.rack[8].node[8].app 	hops
field count 39937
field mean 2.9981721210907
field stddev 0.70864317138596
field sum 119738
field sqrsum 379050
field min 2
field max 4
statistic Basic.rack[8].node[9].app 	throughput
field count 39842
field mean 19921.5
field stddev 11501.539049188
field sum 793712403
field sqrsum 21082324277685
field min 1
field max 39842
statistic Basic.rack[8].node[9].app 	"End-to-End Delay"
field count 39842
field mean 9.9597517997857e-006
field stddev 7.2339051831965e-006
field sum 0.39681643120706
field sqrsum 6.0370481607905e-006
field min 4e-007
field max 5.5723182e-005
statistic Basic.rack[8].node[9].app 	hops
field count 39842
field mean 2.9983434566538
field stddev 0.70837270519416
field sum 119460
field sqrsum 378174
field min 2
field max 4
statistic Basic.rack[8].eps.queue[0] 	dropsum
field count 0
field mean nan
field stddev nan
field sum 0
field sqrsum 0
field min nan
field max nan
statistic Basic.rack[8].eps.queue[1] 	dropsum
field count 0
field mean nan
field stddev nan
field sum 0
field sqrsum 0
field min nan
field max nan
statistic Basic.rack[8].eps.queue[2] 	dropsum
field count 0
field mean nan
field stddev nan
field sum 0
field sqrsum 0
field min nan
field max nan
statistic Basic.rack[8].eps.queue[3] 	dropsum
field count 0
field mean nan
field stddev nan
field sum 0
field sqrsum 0
field min nan
field max nan
statistic Basic.rack[9].node[0].app 	throughput
field count 40079
field mean 20040
field stddev 11569.955056092
field sum 803183160
field sqrsum 21460786307480
field min 1
field max 40079
statistic Basic.rack[9].node[0].app 	"End-to-End Delay"
field count 40079
field mean 9.9555053323702e-006
field stddev 7.2045006252296e-006
field sum 0.39900669821606
field sqrsum 6.052555058781e-006
field min 4e-007
field max 5.5408336e-005
statistic Basic.rack[9].node[0].app 	hops
field count 40079
field mean 2.9960827365952
field stddev 0.70543548836591
field sum 120080
field sqrsum 379714
field min 2
field max 4
statistic Basic.rack[9].node[1].app 	throughput
field count 39787
field mean 19894
field stddev 11485.661916784
field sum 791522578
field sqrsum 20995136381450
field min 1
field max 39787
statistic Basic.rack[9].node[1].app 	"End-to-End Delay"
field count 39787
field mean 1.001005373396e-005
field stddev 7.1959269538948e-006
field sum 0.39827000791306
field sqrsum 6.0468775568146e-006
field min 4e-007
field max 5.0806484e-005
statistic Basic.rack[9].node[1].app 	hops
field count 39787
field mean 3.0044738231081
field stddev 0.70679042043857
field sum 119539
field sqrsum 379027
field min 2
field max 4
statistic Basic.rack[9].node[2].app 	throughput
field count 39979
field mean 19990
field stddev 11541.087542631
field sum 799180210
field sqrsum 21300550137130
field min 1
field max 39979
statistic Basic.rack[9].node[2].app 	"End-to-End Delay"
field count 39979
field mean 9.9331144392072e-006
field stddev 7.2293940105725e-006
field sum 0.39711598216506
field sqrsum 6.034014195857e-006
field min 4e-007
field max 5.13173e-005
statistic Basic.rack[9].node[2].app 	hops
field count 39979
field mean 2.9949723604893
field stddev 0.70931407406175
field sum 119736
field sqrsum 378720
field min 2
field max 4
statistic Basic.rack[9].node[3].app 	throughput
field count 39914
field mean 19957.5
field stddev 11522.323658881
field sum 796583655
field sqrsum 21196825531665
field min 1
field max 39914
statistic Basic.rack[9].node[3].app 	"End-to-End Delay"
field count 39914
field mean 9.9872256182308e-006
field stddev 7.2331975780485e-006
field sum 0.39863012332606
field sqrsum 6.0694231021974e-006
field min 4e-007
field max 5.5444888e-005
statistic Basic.rack[9].node[3].app 	hops
field count 39914
field mean 2.9986470912462
field stddev 0.7081234376644
field sum 119688
field sqrsum 378916
field min 2
field max 4
statistic Basic.rack[9].node[4].app 	throughput
field count 39705
field mean 19853
field stddev 11461.990555746
field sum 788263365
field sqrsum 20865594026005
field min 1
field max 39705
statistic Basic.rack[9].node[4].app 	"End-to-End Delay"
field count 39705
field mean 9.9573589210947e-006
field stddev 7.1639283736901e-006
field sum 0.39535693596206
field sqrsum 5.974394429609e-006
field min 4e-007
field max 5.1542379e-005
statistic Basic.rack[9].node[4].app 	hops
field count 39705
field mean 3.0001763002141
field stddev 0.70719580090204
field sum 119122
field sqrsum 377244
field min 2
field max 4
statistic Basic.rack[9].node[5].app 	throughput
field count 40091
field mean 20046
field stddev 11573.419157708
field sum 803664186
field sqrsum 21480068475346
field min 1
field max 40091
statistic Basic.rack[9].node[5].app 	"End-to-End Delay"
field count 40091
field mean 9.9675655003382e-006
field stddev 7.1848657882069e-006
field sum 0.39960966847406
field sqrsum 6.052673407541e-006
field min 4e-007
field max 5.8598772e-005
statistic Basic.rack[9].node[5].app 	hops
field count 40091
field mean 3.0001247162705
field stddev 0.70675392246516
field sum 120278
field sqrsum 380874
field min 2
field max 4
statistic Basic.rack[9].node[6].app 	throughput
field count 40398
field mean 20199.5
field stddev 11662.042424035
field sum 816019401
field sqrsum 21977306514199
field min 1
field max 40398
statistic Basic.rack[9].node[6].app 	"End-to-End Delay"
field count 40398
field mean 9.9384264424492e-006
field stddev 7.223814165802e-006
field sum 0.40149255142206
field sqrsum 6.0982606795486e-006
field min 4e-007
field max 5.2991478e-005
statistic Basic.rack[9].node[6].app 	hops
field count 40398
field mean 2.9958661319867
field stddev 0.7083975628582
field sum 121027
field sqrsum 382853
field min 2
field max 4
statistic Basic.rack[9].node[7].app 	throughput
field count 40113
field mean 20057
field stddev 11579.770010669
field sum 804546441
field sqrsum 21515449107369
field min 1
field max 40113
statistic Basic.rack[9].node[7].app 	"End-to-End Delay"
field count 40113
field mean 1.0016203784211e-005
field stddev 7.2522593677556e-006
field sum 0.40177998239606
field sqrsum 6.1340114873687e-006
field min 4e-007
field max 5.4826377e-005
statistic Basic.rack[9].node[7].app 	hops
field count 40113
field mean 3.0015456335851
field stddev 0.70865468894032
field sum 120401
field sqrsum 381533
field min 2
field max 4
statistic Basic.rack[9].node[8].app 	throughput
field count 40245
field mean 20123
field stddev 11617.875128439
field sum 809850135
field sqrsum 21728549072095
field min 1
field max 40245
statistic Basic.rack[9].node[8].app 	"End-to-End Delay"
field count 40245
field mean 9.982630990609e-006
field stddev 7.1863556456429e-006
field sum 0.40175098421706
field sqrsum 6.0888811888011e-006
field min 4e-007
field max 5.6988644e-005
statistic Basic.rack[9].node[8].app 	hops
field count 40245
field mean 2.999180022363
field stddev 0.70458924409954
field sum 120702
field sqrsum 381986
field min 2
field max 4
statistic Basic.rack[9].node[9].app 	throughput
field count 39900
field mean 19950.5
field stddev 11518.282206996
field sum 796024950
field sqrsum 21174529011650
field min 1
field max 39900
statistic Basic.rack[9].node[9].app 	"End-to-End Delay"
field count 39900
field mean 9.9554597115554e-006
field stddev 7.209209655884e-006
field sum 0.39722284249106
field sqrsum 6.0281949163388e-006
field min 4e-007
field max 4.7761643e-005
statistic Basic.rack[9].node[9].app 	hops
field count 39900
field mean 2.9985213032581
field stddev 0.70808814826066
field sum 119641
field sqrsum 378751
field min 2
field max 4
statistic Basic.rack[9].eps.queue[0] 	dropsum
field count 0
field mean nan
field stddev nan
field sum 0
field sqrsum 0
field min nan
field max nan
statistic Basic.rack[9].eps.queue[1] 	dropsum
field count 0
field mean nan
field stddev nan
field sum 0
field sqrsum 0
field min nan
field max nan
statistic Basic.rack[9].eps.queue[2] 	dropsum
field count 0
field mean nan
field stddev nan
field sum 0
field sqrsum 0
field min nan
field max nan
statistic Basic.rack[9].eps.queue[3] 	dropsum
field count 0
field mean nan
field stddev nan
field sum 0
field sqrsum 0
field min nan
field max nan
statistic Basic.rack[10].node[0].app 	throughput
field count 39866
field mean 19933.5
field stddev 11508.467252419
field sum 794668911
field sqrsum 21120445426921
field min 1
field max 39866
statistic Basic.rack[10].node[0].app 	"End-to-End Delay"
field count 39866
field mean 7.620694501833e-006
field stddev 8.0443982260577e-006
field sum 0.30380660701007
field sqrsum 4.8949748861576e-006
field min 4e-007
field max 4.6867681e-005
statistic Basic.rack[10].node[0].app 	hops
field count 39866
field mean 3.2502884663623
field stddev 0.82996408256191
field sum 129576
field sqrsum 448620
field min 2
field max 4
statistic Basic.rack[10].node[1].app 	throughput
field count 40230
field mean 20115.5
field stddev 11613.54500142
field sum 809246565
field sqrsum 21704262622155
field min 1
field max 40230
statistic Basic.rack[10].node[1].app 	"End-to-End Delay"
field count 40230
field mean 7.5478029657736e-006
field stddev 8.0148148393301e-006
field sum 0.30364811331307
field sqrsum 4.8760767383979e-006
field min 4e-007
field max 4.9693308e-005
statistic Basic.rack[10].node[1].app 	hops
field count 40230
field mean 3.2504349987571
field stddev 0.831258541353
field sum 130765
field sqrsum 452841
field min 2
field max 4
statistic Basic.rack[10].node[2].app 	throughput
field count 40409
field mean 20205
field stddev 11665.217850516
field sum 816463845
field sqrsum 21995263829685
field min 1
field max 40409
statistic Basic.rack[10].node[2].app 	"End-to-End Delay"
field count 40409
field mean 7.5618857005883e-006
field stddev 7.9895131859877e-006
field sum 0.30556823927507
field sqrsum 4.8900085240382e-006
field min 4e-007
field max 5.0182166e-005
statistic Basic.rack[10].node[2].app 	hops
field count 40409
field mean 3.2507114751664
field stddev 0.82770052070604
field sum 131358
field sqrsum 454690
field min 2
field max 4
statistic Basic.rack[10].node[3].app 	throughput
field count 39570
field mean 19785.5
field stddev 11423.019412572
field sum 782912235
field sqrsum 20653485730045
field min 1
field max 39570
statistic Basic.rack[10].node[3].app 	"End-to-End Delay"
field count 39570
field mean 7.6015008611339e-006
field stddev 8.0279443236399e-006
field sum 0.30079138907507
field sqrsum 4.8366045649969e-006
field min 4e-007
field max 5.4719561e-005
statistic Basic.rack[10].node[3].app 	hops
field count 39570
field mean 3.2459438968916
field stddev 0.83384875593148
field sum 128442
field sqrsum 444428
field min 2
field max 4
statistic Basic.rack[10].node[4].app 	throughput
field count 39980
field mean 19990.5
field stddev 11541.376217765
field sum 799220190
field sqrsum 21302148537530
field min 1
field max 39980
statistic Basic.rack[10].node[4].app 	"End-to-End Delay"
field count 39980
field mean 7.623201430292e-006
field stddev 8.0319775753904e-006
field sum 0.30477559318308
field sqrsum 4.9025175227951e-006
field min 4e-007
field max 4.7261492e-005
statistic Basic.rack[10].node[4].app 	hops
field count 39980
field mean 3.2485242621311
field stddev 0.82941409160184
field sum 129876
field sqrsum 449408
field min 2
field max 4
statistic Basic.rack[10].node[5].app 	throughput
field count 40229
field mean 20115
field stddev 11613.256326285
field sum 809206335
field sqrsum 21702644169255
field min 1
field max 40229
statistic Basic.rack[10].node[5].app 	"End-to-End Delay"
field count 40229
field mean 7.5659681571273e-006
field stddev 7.9654090601531e-006
field sum 0.30437133299307
field sqrsum 4.8552395582517e-006
field min 4e-007
field max 4.8654545e-005
statistic Basic.rack[10].node[5].app 	hops
field count 40229
field mean 3.2515846777201
field stddev 0.82723465776017
field sum 130808
field sqrsum 452862
field min 2
field max 4
statistic Basic.rack[10].node[6].app 	throughput
field count 39699
field mean 19850
field stddev 11460.258504938
field sum 788025150
field sqrsum 20856136294950
field min 1
field max 39699
statistic Basic.rack[10].node[6].app 	"End-to-End Delay"
field count 39699
field mean 7.5824865078483e-006
field stddev 8.0082152995704e-006
field sum 0.30101713187507
field sqrsum 4.828351115735e-006
field min 4e-007
field max 5.4705377e-005
statistic Basic.rack[10].node[6].app 	hops
field count 39699
field mean 3.2550442076627
field stddev 0.82867456308143
field sum 129222
field sqrsum 447884
field min 2
field max 4
statistic Basic.rack[10].node[7].app 	throughput
field count 39764
field mean 19882.5
field stddev 11479.022388688
field sum 790607730
field sqrsum 20958747386390
field min 1
field max 39764
statistic Basic.rack[10].node[7].app 	"End-to-End Delay"
field count 39764
field mean 7.5911811493328e-006
field stddev 8.0261743952337e-006
field sum 0.30185572722207
field sqrsum 4.8529531075394e-006
field min 4e-007
field max 5.7098838e-005
statistic Basic.rack[10].node[7].app 	hops
field count 39764
field mean 3.2452972537974
field stddev 0.8309484526718
field sum 129046
field sqrsum 446248
field min 2
field max 4
statistic Basic.rack[10].node[8].app 	throughput
field count 40087
field mean 20044
field stddev 11572.264457169
field sum 803503828
field sqrsum 21473639803300
field min 1
field max 40087
statistic Basic.rack[10].node[8].app 	"End-to-End Delay"
field count 40087
field mean 7.6294284386977e-006
field stddev 8.0286562286506e-006
field sum 0.30584089782207
field sqrsum 4.9173075786666e-006
field min 4e-007
field max 5.1565371e-005
statistic Basic.rack[10].node[8].app 	hops
field count 40087
field mean 3.2513034150722
field stddev 0.82691540581492
field sum 130335
field sqrsum 451169
field min 2
field max 4
statistic Basic.rack[10].node[9].app 	throughput
field count 40071
field mean 20036
field stddev 11567.645655016
field sum 802862556
field sqrsum 21447937941836
field min 1
field max 40071
statistic Basic.rack[10].node[9].app 	"End-to-End Delay"
field count 40071
field mean 7.5550778203457e-006
field stddev 7.9822105805049e-006
field sum 0.30273952333907
field sqrsum 4.8403081861846e-006
field min 4e-007
field max 5.1642407e-005
statistic Basic.rack[10].node[9].app 	hops
field count 40071
field mean 3.2473359786379
field stddev 0.83017182179294
field sum 130124
field sqrsum 450172
field min 2
field max 4
statistic Basic.rack[10].eps.queue[0] 	dropsum
field count 0
field mean nan
field stddev nan
field sum 0
field sqrsum 0
field min nan
field max nan
statistic Basic.rack[10].eps.queue[1] 	dropsum
field count 0
field mean nan
field stddev nan
field sum 0
field sqrsum 0
field min nan
field max nan
statistic Basic.rack[10].eps.queue[2] 	dropsum
field count 0
field mean nan
field stddev nan
field sum 0
field sqrsum 0
field min nan
field max nan
statistic Basic.rack[10].eps.queue[3] 	dropsum
field count 0
field mean nan
field stddev nan
field sum 0
field sqrsum 0
field min nan
field max nan
statistic Basic.rack[11].node[0].app 	throughput
field count 39972
field mean 19986.5
field stddev 11539.066816688
field sum 798900378
field sqrsum 21289363573070
field min 1
field max 39972
statistic Basic.rack[11].node[0].app 	"End-to-End Delay"
field count 39972
field mean 7.5735635448582e-006
field stddev 8.0355723589073e-006
field sum 0.30273048201507
field sqrsum 4.8736929256451e-006
field min 4e-007
field max 5.0359092e-005
statistic Basic.rack[11].node[0].app 	hops
field count 39972
field mean 3.254252977084
field stddev 0.83067800239115
field sum 130079
field sqrsum 450891
field min 2
field max 4
statistic Basic.rack[11].node[1].app 	throughput
field count 40151
field mean 20076
field stddev 11590.739665785
field sum 806071476
field sqrsum 21576652579076
field min 1
field max 40151
statistic Basic.rack[11].node[1].app 	"End-to-End Delay"
field count 40151
field mean 7.4437589613477e-006
field stddev 7.9528076788359e-006
field sum 0.29887436605707
field sqrsum 4.764121812213e-006
field min 4e-007
field max 4.7837273e-005
statistic Basic.rack[11].node[1].app 	hops
field count 40151
field mean 3.2450001245299
field stddev 0.83239117179914
field sum 130290
field sqrsum 450610
field min 2
field max 4
statistic Basic.rack[11].node[2].app 	throughput
field count 40231
field mean 20116
field stddev 11613.833676554
field sum 809286796
field sqrsum 21705881155516
field min 1
field max 40231
statistic Basic.rack[11].node[2].app 	"End-to-End Delay"
field count 40231
field mean 7.5338946343386e-006
field stddev 7.9903283705268e-006
field sum 0.30309611503408
field sqrsum 4.8519925234158e-006
field min 4e-007
field max 4.6702847e-005
statistic Basic.rack[11].node[2].app 	hops
field count 40231
field mean 3.2439412393428
field stddev 0.83118979612567
field sum 130507
field sqrsum 451151
field min 2
field max 4
statistic Basic.rack[11].node[3].app 	throughput
field count 39898
field mean 19949.5
field stddev 11517.704856727
field sum 795945151
field sqrsum 21171345071449
field min 1
field max 39898
statistic Basic.rack[11].node[3].app 	"End-to-End Delay"
field count 39898
field mean 7.5188156328154e-006
field stddev 7.9596935206888e-006
field sum 0.29998570611807
field sqrsum 4.7832803122563e-006
field min 4e-007
field max 4.4191616e-005
statistic Basic.rack[11].node[3].app 	hops
field count 39898
field mean 3.2466289037044
field stddev 0.8306056808837
field sum 129534
field sqrsum 448074
field min 2
field max 4
statistic Basic.rack[11].node[4].app 	throughput
field count 40028
field mean 20014.5
field stddev 11555.232624227
field sum 801140406
field sqrsum 21378965827714
field min 1
field max 40028
statistic Basic.rack[11].node[4].app 	"End-to-End Delay"
field count 40028
field mean 7.5336492409331e-006
field stddev 7.9823540118709e-006
[...]
field sum 0.39759814861506
field sqrsum 6.0279882695699e-006
field min 4e-007
field max 5.6026402e-005
statistic Basic.rack[13].node[1].app 	hops
field count 39859
field mean 3.0001756190572
field stddev 0.70586382151533
field sum 119584
field sqrsum 378632
field min 2
field max 4
statistic Basic.rack[13].node[2].app 	throughput
field count 40099
field mean 20050
field stddev 11575.728558785
field sum 803984950
field sqrsum 21492929668350
field min 1
field max 40099
statistic Basic.rack[13].node[2].app 	"End-to-End Delay"
field count 40099
field mean 9.9256481623997e-006
field stddev 7.1839792110461e-006
field sum 0.39800856566407
field sqrsum 6.0199330172085e-006
field min 4e-007
field max 5.3692163e-005
statistic Basic.rack[13].node[2].app 	hops
field count 40099
field mean 2.9973814808349
field stddev 0.70731351604697
field sum 120192
field sqrsum 380322
field min 2
field max 4
statistic Basic.rack[13].node[3].app 	throughput
field count 39926
field mean 19963.5
field stddev 11525.787760496
field sum 797062701
field sqrsum 21215949287651
field min 1
field max 39926
statistic Basic.rack[13].node[3].app 	"End-to-End Delay"
field count 39926
field mean 1.0044399165358e-005
field stddev 7.2453030930491e-006
field sum 0.40103268107606
field sqrsum 6.1239719222191e-006
field min 4e-007
field max 5.4286096e-005
statistic Basic.rack[13].node[3].app 	hops
field count 39926
field mean 3.0066873716375
field stddev 0.70902959554458
field sum 120045
field sqrsum 381009
field min 2
field max 4
statistic Basic.rack[13].node[4].app 	throughput
field count 40246
field mean 20123.5
field stddev 11618.163803574
field sum 809890381
field sqrsum 21730168812611
field min 1
field max 40246
statistic Basic.rack[13].node[4].app 	"End-to-End Delay"
field count 40246
field mean 9.994058296677e-006
field stddev 7.2443903376916e-006
field sum 0.40222087020806
field sqrsum 6.1319243714775e-006
field min 4e-007
field max 5.9454197e-005
statistic Basic.rack[13].node[4].app 	hops
field count 40246
field mean 3.0015653729563
field stddev 0.71058415354696
field sum 120801
field sqrsum 382913
field min 2
field max 4
statistic Basic.rack[13].node[5].app 	throughput
field count 39899
field mean 19950
field stddev 11517.993531861
field sum 795985050
field sqrsum 21172937001650
field min 1
field max 39899
statistic Basic.rack[13].node[5].app 	"End-to-End Delay"
field count 39899
field mean 9.9101492176511e-006
field stddev 7.2051404504404e-006
field sum 0.39540504363506
field sqrsum 5.9897897072693e-006
field min 4e-007
field max 5.8197213e-005
statistic Basic.rack[13].node[5].app 	hops
field count 39899
field mean 2.9936088623775
field stddev 0.70753856013192
field sum 119442
field sqrsum 377536
field min 2
field max 4
statistic Basic.rack[13].node[6].app 	throughput
field count 40152
field mean 20076.5
field stddev 11591.02834092
field sum 806111628
field sqrsum 21578264762180
field min 1
field max 40152
statistic Basic.rack[13].node[6].app 	"End-to-End Delay"
field count 40152
field mean 9.9706978623498e-006
field stddev 7.2126099040785e-006
field sum 0.40034346056907
field sqrsum 6.080428634624e-006
field min 4e-007
field max 5.6029042e-005
statistic Basic.rack[13].node[6].app 	hops
field count 40152
field mean 2.9989041641761
field stddev 0.70887364889413
field sum 120412
field sqrsum 381280
field min 2
field max 4
statistic Basic.rack[13].node[7].app 	throughput
field count 40082
field mean 20041.5
field stddev 11570.821081496
field sum 803303403
field sqrsum 21465605767165
field min 1
field max 40082
statistic Basic.rack[13].node[7].app 	"End-to-End Delay"
field count 40082
field mean 9.9507326115229e-006
field stddev 7.1898139114371e-006
field sum 0.39884526453506
field sqrsum 6.0407267113549e-006
field min 4e-007
field max 4.7782918e-005
statistic Basic.rack[13].node[7].app 	hops
field count 40082
field mean 2.997380370241
field stddev 0.70545046689358
field sum 120141
field sqrsum 380055
field min 2
field max 4
statistic Basic.rack[13].node[8].app 	throughput
field count 40118
field mean 20059.5
field stddev 11581.213386343
field sum 804747021
field sqrsum 21523495574659
field min 1
field max 40118
statistic Basic.rack[13].node[8].app 	"End-to-End Delay"
field count 40118
field mean 9.9518013888296e-006
field stddev 7.2225410150656e-006
field sum 0.39924636811707
field sqrsum 6.0659278258343e-006
field min 4e-007
field max 5.3624308e-005
statistic Basic.rack[13].node[8].app 	hops
field count 40118
field mean 2.9973328680393
field stddev 0.70904677524354
field sum 120247
field sqrsum 380589
field min 2
field max 4
statistic Basic.rack[13].node[9].app 	throughput
field count 39895
field mean 19948
field stddev 11516.838831323
field sum 795825460
field sqrsum 21166569759620
field min 1
field max 39895
statistic Basic.rack[13].node[9].app 	"End-to-End Delay"
field count 39895
field mean 1.0039171353905e-005
field stddev 7.1678515568329e-006
field sum 0.40051274116406
field sqrsum 6.0704937974303e-006
field min 4e-007
field max 5.4319505e-005
statistic Basic.rack[13].node[9].app 	hops
field count 39895
field mean 3.0087228976062
field stddev 0.70444243520945
field sum 120033
field sqrsum 380943
field min 2
field max 4
statistic Basic.rack[13].eps.queue[0] 	dropsum
field count 0
field mean nan
field stddev nan
field sum 0
field sqrsum 0
field min nan
field max nan
statistic Basic.rack[13].eps.queue[1] 	dropsum
field count 0
field mean nan
field stddev nan
field sum 0
field sqrsum 0
field min nan
field max nan
statistic Basic.rack[13].eps.queue[2] 	dropsum
field count 0
field mean nan
field stddev nan
field sum 0
field sqrsum 0
field min nan
field max nan
statistic Basic.rack[13].eps.queue[3] 	dropsum
field count 0
field mean nan
field stddev nan
field sum 0
field sqrsum 0
field min nan
field max nan
statistic Basic.rack[14].node[0].app 	throughput
field count 39931
field mean 19966
field stddev 11527.231136169
field sum 797262346
field sqrsum 21223920912866
field min 1
field max 39931
statistic Basic.rack[14].node[0].app 	"End-to-End Delay"
field count 39931
field mean 7.5928731765563e-006
field stddev 7.9778921083927e-006
field sum 0.30319101881307
field sqrsum 4.8435061804702e-006
field min 4e-007
field max 5.0932762e-005
statistic Basic.rack[14].node[0].app 	hops
field count 39931
field mean 3.2461496080739
field stddev 0.82933318167485
field sum 129622
field sqrsum 448236
field min 2
field max 4
statistic Basic.rack[14].node[1].app 	throughput
field count 39855
field mean 19928
field stddev 11505.291825938
field sum 794230440
field sqrsum 21102967534280
field min 1
field max 39855
statistic Basic.rack[14].node[1].app 	"End-to-End Delay"
field count 39855
field mean 7.6216077968403e-006
field stddev 8.0107764705594e-006
field sum 0.30375917874307
field sqrsum 4.8726657207302e-006
field min 4e-007
field max 5.5476014e-005
statistic Basic.rack[14].node[1].app 	hops
field count 39855
field mean 3.248676452139
field stddev 0.82877394619883
field sum 129476
field sqrsum 448000
field min 2
field max 4
statistic Basic.rack[14].node[2].app 	throughput
field count 40085
field mean 20043
field stddev 11571.6871069
field sum 803423655
field sqrsum 21470425948335
field min 1
field max 40085
statistic Basic.rack[14].node[2].app 	"End-to-End Delay"
field count 40085
field mean 7.5879601751296e-006
field stddev 8.0214363397404e-006
field sum 0.30416338362007
field sqrsum 4.8871221287821e-006
field min 4e-007
field max 4.9487883e-005
statistic Basic.rack[14].node[2].app 	hops
field count 40085
field mean 3.2503929150555
field stddev 0.829457869358
field sum 130292
field sqrsum 451078
field min 2
field max 4
statistic Basic.rack[14].node[3].app 	throughput
field count 39950
field mean 19975.5
field stddev 11532.715963727
field sum 798021225
field sqrsum 21254231299575
field min 1
field max 39950
statistic Basic.rack[14].node[3].app 	"End-to-End Delay"
field count 39950
field mean 7.6144625192509e-006
field stddev 7.996958795309e-006
field sum 0.30419777764407
field sqrsum 4.8710950564163e-006
field min 4e-007
field max 5.2024006e-005
statistic Basic.rack[14].node[3].app 	hops
field count 39950
field mean 3.2445556946183
field stddev 0.82818583881493
field sum 129620
field sqrsum 447960
field min 2
field max 4
statistic Basic.rack[14].node[4].app 	throughput
field count 40092
field mean 20046.5
field stddev 11573.707832843
field sum 803704278
field sqrsum 21481675843810
field min 1
field max 40092
statistic Basic.rack[14].node[4].app 	"End-to-End Delay"
field count 40092
field mean 7.5584063852408e-006
field stddev 8.0050611903854e-006
field sum 0.30303162879708
field sqrsum 4.8595077559265e-006
field min 4e-007
field max 4.6255776e-005
statistic Basic.rack[14].node[4].app 	hops
field count 40092
field mean 3.2401227177492
field stddev 0.8319907993095
field sum 129903
field sqrsum 448653
field min 2
field max 4
statistic Basic.rack[14].node[5].app 	throughput
field count 39898
field mean 19949.5
field stddev 11517.704856727
field sum 795945151
field sqrsum 21171345071449
field min 1
field max 39898
statistic Basic.rack[14].node[5].app 	"End-to-End Delay"
field count 39898
field mean 7.5646796609121e-006
field stddev 7.9881205759014e-006
field sum 0.30181558911107
field sqrsum 4.8289686244558e-006
field min 4e-007
field max 4.9397898e-005
statistic Basic.rack[14].node[5].app 	hops
field count 39898
field mean 3.2570304275904
field stddev 0.82679445206859
field sum 129949
field sqrsum 450521
field min 2
field max 4
statistic Basic.rack[14].node[6].app 	throughput
field count 39671
field mean 19836
field stddev 11452.175601169
field sum 786913956
field sqrsum 20812038003636
field min 1
field max 39671
statistic Basic.rack[14].node[6].app 	"End-to-End Delay"
field count 39671
field mean 7.5730671008564e-006
field stddev 8.0148341063427e-006
field sum 0.30043114495807
field sqrsum 4.8234894533441e-006
field min 4e-007
field max 4.8895922e-005
statistic Basic.rack[14].node[6].app 	hops
field count 39671
field mean 3.2491744599329
field stddev 0.82928973445009
field sum 128898
field sqrsum 446094
field min 2
field max 4
statistic Basic.rack[14].node[7].app 	throughput
field count 40046
field mean 20023.5
field stddev 11560.42877665
field sum 801861081
field sqrsum 21407819853511
field min 1
field max 40046
statistic Basic.rack[14].node[7].app 	"End-to-End Delay"
field count 40046
field mean 7.5884720534904e-006
field stddev 7.9984437436786e-006
field sum 0.30388795185407
field sqrsum 4.8679282024732e-006
field min 4e-007
field max 5.4890387e-005
statistic Basic.rack[14].node[7].app 	hops
field count 40046
field mean 3.2519852170004
field stddev 0.82688344168137
field sum 130229
field sqrsum 450883
field min 2
field max 4
statistic Basic.rack[14].node[8].app 	throughput
field count 40258
field mean 20129.5
field stddev 11621.627905189
field sum 810373411
field sqrsum 21749611977829
field min 1
field max 40258
statistic Basic.rack[14].node[8].app 	"End-to-End Delay"
field count 40258
field mean 7.5392765718385e-006
field stddev 7.9822527709187e-006
field sum 0.30351619622907
field sqrsum 4.8533220236968e-006
field min 4e-007
field max 4.8907522e-005
statistic Basic.rack[14].node[8].app 	hops
field count 40258
field mean 3.2503104972925
field stddev 0.82849584998672
field sum 130851
field sqrsum 452939
field min 2
field max 4
statistic Basic.rack[14].node[9].app 	throughput
field count 40068
field mean 20034.5
field stddev 11566.779629612
field sum 802742346
field sqrsum 21443121127134
field min 1
field max 40068
statistic Basic.rack[14].node[9].app 	"End-to-End Delay"
field count 40068
field mean 7.6289628087769e-006
field stddev 8.0202932388242e-006
field sum 0.30567728182207
field sqrsum 4.9093145419214e-006
field min 4e-007
field max 4.7418121e-005
statistic Basic.rack[14].node[9].app 	hops
field count 40068
field mean 3.2608066287312
field stddev 0.82759714367259
field sum 130654
field sqrsum 453480
field min 2
field max 4
statistic Basic.rack[14].eps.queue[0] 	dropsum
field count 0
field mean nan
field stddev nan
field sum 0
field sqrsum 0
field min nan
field max nan
statistic Basic.rack[14].eps.queue[1] 	dropsum
field count 0
field mean nan
field stddev nan
field sum 0
field sqrsum 0
field min nan
field max nan
statistic Basic.rack[14].eps.queue[2] 	dropsum
field count 0
field mean nan
field stddev nan
field sum 0
field sqrsum 0
field min nan
field max nan
statistic Basic.rack[14].eps.queue[3] 	dropsum
field count 0
field mean nan
field stddev nan
field sum 0
field sqrsum 0
field min nan
field max nan
statistic Basic.rack[15].node[0].app 	throughput
field count 39946
field mean 19973.5
field stddev 11531.561263188
field sum 797861431
field sqrsum 21247847768961
field min 1
field max 39946
statistic Basic.rack[15].node[0].app 	"End-to-End Delay"
field count 39946
field mean 7.577154229061e-006
field stddev 8.0286329740848e-006
field sum 0.30267700283407
field sqrsum 4.8682429872573e-006
field min 4e-007
field max 5.886239e-005
statistic Basic.rack[15].node[0].app 	hops
field count 39946
field mean 3.248735793321
field stddev 0.82997663407297
field sum 129774
field sqrsum 449118
field min 2
field max 4
statistic Basic.rack[15].node[1].app 	throughput
field count 40067
field mean 20034
field stddev 11566.490954477
field sum 802702278
field sqrsum 21441515682510
field min 1
field max 40067
statistic Basic.rack[15].node[1].app 	"End-to-End Delay"
field count 40067
field mean 7.5410213901982e-006
field stddev 7.9871536993667e-006
field sum 0.30214610404107
field sqrsum 4.8344856474294e-006
field min 4e-007
field max 5.4412732e-005
statistic Basic.rack[15].node[1].app 	hops
field count 40067
field mean 3.2482591658971
field stddev 0.83042236829184
field sum 130148
field sqrsum 450384
field min 2
field max 4
statistic Basic.rack[15].node[2].app 	throughput
field count 39916
field mean 19958.5
field stddev 11522.90100915
field sum 796663486
field sqrsum 21200012025946
field min 1
field max 39916
statistic Basic.rack[15].node[2].app 	"End-to-End Delay"
field count 39916
field mean 7.5225248422706e-006
field stddev 8.0029667874261e-006
field sum 0.30026910160407
field sqrsum 4.8152368366296e-006
field min 4e-007
field max 6.207051e-005
statistic Basic.rack[15].node[2].app 	hops
field count 39916
field mean 3.2479456859405
field stddev 0.83044718617764
field sum 129645
field sqrsum 448607
field min 2
field max 4
statistic Basic.rack[15].node[3].app 	throughput
field count 39755
field mean 19878
field stddev 11476.424312476
field sum 790249890
field sqrsum 20944519667930
field min 1
field max 39755
statistic Basic.rack[15].node[3].app 	"End-to-End Delay"
field count 39755
field mean 7.5937610812493e-006
field stddev 7.9903283257974e-006
field sum 0.30188997178507
field sqrsum 4.8305882334211e-006
field min 4e-007
field max 4.8773635e-005
statistic Basic.rack[15].node[3].app 	hops
field count 39755
field mean 3.2545340208779
field stddev 0.82886027993559
field sum 129384
field sqrsum 448396
field min 2
field max 4
statistic Basic.rack[15].node[4].app 	throughput
field count 40127
field mean 20064
field stddev 11583.811462554
field sum 805108128
field sqrsum 21537984270880
field min 1
field max 40127
statistic Basic.rack[15].node[4].app 	"End-to-End Delay"
field count 40127
field mean 7.6107511436457e-006
field stddev 8.0162294186561e-006
field sum 0.30539661114107
field sqrsum 4.9027917229042e-006
field min 4e-007
field max 5.2465913e-005
statistic Basic.rack[15].node[4].app 	hops
field count 40127
field mean 3.2552894559773
field stddev 0.82801612099635
field sum 130625
field sqrsum 452733
field min 2
field max 4
statistic Basic.rack[15].node[5].app 	throughput
field count 39926
field mean 19963.5
field stddev 11525.787760496
field sum 797062701
field sqrsum 21215949287651
field min 1
field max 39926
statistic Basic.rack[15].node[5].app 	"End-to-End Delay"
field count 39926
field mean 7.5827933722405e-006
field stddev 8.0180787964143e-006
field sum 0.30275060818007
field sqrsum 4.862457089501e-006
field min 4e-007
field max 4.6965175e-005
statistic Basic.rack[15].node[5].app 	hops
field count 39926
field mean 3.2442268196163
field stddev 0.82977683749797
field sum 129529
field sqrsum 447711
field min 2
field max 4
statistic Basic.rack[15].node[6].app 	throughput
field count 40241
field mean 20121
field stddev 11616.7204279
field sum 809689161
field sqrsum 21722070914921
field min 1
field max 40241
statistic Basic.rack[15].node[6].app 	"End-to-End Delay"
field count 40241
field mean 7.5860177700125e-006
field stddev 8.0115321404182e-006
field sum 0.30526894108307
field sqrsum 4.8985658165041e-006
field min 4e-007
field max 4.9553455e-005
statistic Basic.rack[15].node[6].app 	hops
field count 40241
field mean 3.2439303198231
field stddev 0.82949450433327
field sum 130539
field sqrsum 451147
field min 2
field max 4
statistic Basic.rack[15].node[7].app 	throughput
field count 40071
field mean 20036
field stddev 11567.645655016
field sum 802862556
field sqrsum 21447937941836
field min 1
field max 40071
statistic Basic.rack[15].node[7].app 	"End-to-End Delay"
field count 40071
field mean 7.6047209250349e-006
field stddev 8.0240269682034e-006
field sum 0.30472877218707
field sqrsum 4.8972845723845e-006
field min 4e-007
field max 5.6087494e-005
statistic Basic.rack[15].node[7].app 	hops
field count 40071
field mean 3.2556212722418
field stddev 0.82663230702134
field sum 130456
field sqrsum 452096
field min 2
field max 4
statistic Basic.rack[15].node[8].app 	throughput
field count 39809
field mean 19905
field stddev 11492.012769746
field sum 792398145
field sqrsum 21029982635585
field min 1
field max 39809
statistic Basic.rack[15].node[8].app 	"End-to-End Delay"
field count 39809
field mean 7.5815329571723e-006
field stddev 7.987442477683e-006
field sum 0.30181324549207
field sqrsum 4.8279271074129e-006
field min 4e-007
field max 5.0555379e-005
statistic Basic.rack[15].node[8].app 	hops
field count 39809
field mean 3.2438142128664
field stddev 0.83023918683913
field sum 129133
field sqrsum 446323
field min 2
field max 4
statistic Basic.rack[15].node[9].app 	throughput
field count 39766
field mean 19883.5
field stddev 11479.599738957
field sum 790687261
field sqrsum 20961909976371
field min 1
field max 39766
statistic Basic.rack[15].node[9].app 	"End-to-End Delay"
field count 39766
field mean 7.546914174749e-006
field stddev 8.0067824424342e-006
field sum 0.30011058907307
field sqrsum 4.8141859490928e-006
field min 4e-007
field max 4.9698345e-005
statistic Basic.rack[15].node[9].app 	hops
field count 39766
field mean 3.2526278730574
field stddev 0.82981806624534
field sum 129344
field sqrsum 448090
field min 2
field max 4
statistic Basic.rack[15].eps.queue[0] 	dropsum
field count 0
field mean nan
field stddev nan
field sum 0
field sqrsum 0
field min nan
field max nan
statistic Basic.rack[15].eps.queue[1] 	dropsum
field count 0
field mean nan
field stddev nan
field sum 0
field sqrsum 0
field min nan
field max nan
statistic Basic.rack[15].eps.queue[2] 	dropsum
field count 0
field mean nan
field stddev nan
field sum 0
field sqrsum 0
field min nan
field max nan
statistic Basic.rack[15].eps.queue[3] 	dropsum
field count 0
field mean nan
field stddev nan
field sum 0
field sqrsum 0
field min nan
field max nan
