version 2
run Basic-65-20180510-19:20:27-23956
attr configname Basic
attr datetime 20180510-19:20:27
attr experiment Basic
attr inifile omnetpp.ini
attr iterationvars "$0=exponential(0.05 ms), $1=4, $2=3"
attr iterationvarsf exponential(0.05_ms),4,3-
attr measurement "$0=exponential(0.05 ms), $1=4, $2=3"
attr network Networks.Basic
attr processid 23956
attr repetition 0
attr replication #0
attr resultdir results
attr runnumber 65
attr seedset 65
param **.frameCapacity 50
param **.packetLength "1024 bytes"
param **.pattern 4
param **.sendIaTime "exponential(0.05 ms)"
param **.tp 3

statistic Basic.rack[0].node[0].app 	throughput
field count 148332
field mean 74166.5
field stddev 42819.904402042
field sum 11001265278
field sqrsum 1.0878967878993e+015
field min 1
field max 148332
statistic Basic.rack[0].node[0].app 	"End-to-End Delay"
field count 148332
field mean 0.00041051991643411
field stddev 0.00032951450886459
field sum 60.893240244504
field sqrsum 0.041103639923936
field min 8.496e-007
field max 0.000837151653
statistic Basic.rack[0].node[0].app 	hops
field count 148332
field mean 4.8174500444948
field stddev 0.83176755041418
field sum 714582
field sqrsum 3545084
field min 4
field max 6
statistic Basic.rack[0].node[1].app 	throughput
field count 149091
field mean 74546
field stddev 43039.008829201
field sum 11114137686
field sqrsum 1.1046823058748e+015
field min 1
field max 149091
statistic Basic.rack[0].node[1].app 	"End-to-End Delay"
field count 149091
field mean 0.00041073691641716
field stddev 0.00033011619704461
field sum 61.23717760555
field sqrsum 0.041399706232241
field min 8.496e-007
field max 0.000837037188
statistic Basic.rack[0].node[1].app 	hops
field count 149091
field mean 4.8156763319047
field stddev 0.83235433874937
field sum 717974
field sqrsum 3560822
field min 4
field max 6
statistic Basic.rack[0].node[2].app 	throughput
field count 149308
field mean 74654.5
field stddev 43101.651333408
field sum 11146514086
field sqrsum 1.1095128656064e+015
field min 1
field max 149308
statistic Basic.rack[0].node[2].app 	"End-to-End Delay"
field count 149308
field mean 0.0004091084694608
field stddev 0.00032977930216143
field sum 61.083167358252
field sqrsum 0.041227432536888
field min 8.496e-007
field max 0.0008371705
statistic Basic.rack[0].node[2].app 	hops
field count 149308
field mean 4.8139081629919
field stddev 0.83118070733516
field sum 718755
field sqrsum 3563171
field min 4
field max 6
statistic Basic.rack[0].node[3].app 	throughput
field count 148759
field mean 74380
field stddev 42943.168684515
field sum 11064694420
field sqrsum 1.0973189397147e+015
field min 1
field max 148759
statistic Basic.rack[0].node[3].app 	"End-to-End Delay"
field count 148759
field mean 0.00041147189397856
field stddev 0.00032969968141263
field sum 61.210147476356
field sqrsum 0.041356529566476
field min 8.496e-007
field max 0.000836916506
statistic Basic.rack[0].node[3].app 	hops
field count 148759
field mean 4.8193789955566
field stddev 0.83292072590242
field sum 716926
field sqrsum 3558340
field min 4
field max 6
statistic Basic.rack[0].node[4].app 	throughput
field count 148769
field mean 74385
field stddev 42946.05543586
field sum 11066182065
field sqrsum 1.0975402484793e+015
field min 1
field max 148769
statistic Basic.rack[0].node[4].app 	"End-to-End Delay"
field count 148769
field mean 0.00040994228341803
field stddev 0.00032946139330572
field sum 60.986703561817
field sqrsum 0.041149022762587
field min 8.496e-007
field max 0.000837122357
statistic Basic.rack[0].node[4].app 	hops
field count 148769
field mean 4.8182013725978
field stddev 0.83130609018206
field sum 716799
field sqrsum 3556491
field min 4
field max 6
statistic Basic.rack[0].node[5].app 	throughput
field count 148938
field mean 74469.5
field stddev 42994.841533607
field sum 11091338391
field sqrsum 1.101284868632e+015
field min 1
field max 148938
statistic Basic.rack[0].node[5].app 	"End-to-End Delay"
field count 148938
field mean 0.00041133913045134
field stddev 0.00032943952647376
field sum 61.264027411162
field sqrsum 0.041364484186838
field min 8.496e-007
field max 0.000837150586
statistic Basic.rack[0].node[5].app 	hops
field count 148938
field mean 4.8195759309243
field stddev 0.83165242682934
field sum 717818
field sqrsum 3562590
field min 4
field max 6
statistic Basic.rack[0].node[6].app 	throughput
field count 148416
field mean 74208.5
field stddev 42844.153113348
field sum 11013728736
field sqrsum 1.0897460472977e+015
field min 1
field max 148416
statistic Basic.rack[0].node[6].app 	"End-to-End Delay"
field count 148416
field mean 0.0004113964445781
field stddev 0.00032985949491344
field sum 61.057814718504
field sqrsum 0.041267601297664
field min 8.496e-007
field max 0.000837120979
statistic Basic.rack[0].node[6].app 	hops
field count 148416
field mean 4.8169402220785
field stddev 0.83263557804069
field sum 714911
field sqrsum 3546577
field min 4
field max 6
statistic Basic.rack[0].node[7].app 	throughput
field count 149029
field mean 74515
field stddev 43021.110970856
field sum 11104895935
field sqrsum 1.1033047258301e+015
field min 1
field max 149029
statistic Basic.rack[0].node[7].app 	"End-to-End Delay"
field count 149029
field mean 0.00041128261094374
field stddev 0.00032947326827493
field sum 61.293036226335
field sqrsum 0.04138614198726
field min 8.496e-007
field max 0.000837155001
statistic Basic.rack[0].node[7].app 	hops
field count 149029
field mean 4.8179012138577
field stddev 0.83152178412747
field sum 718007
field sqrsum 3562329
field min 4
field max 6
statistic Basic.rack[0].node[8].app 	throughput
field count 148639
field mean 74320
field stddev 42908.527668363
field sum 11046850480
field sqrsum 1.0946655546146e+015
field min 1
field max 148639
statistic Basic.rack[0].node[8].app 	"End-to-End Delay"
field count 148639
field mean 0.0004111943005881
field stddev 0.00033000400348254
field sum 61.119509645115
field sqrsum 0.041319064969154
field min 8.496e-007
field max 0.000837002615
statistic Basic.rack[0].node[8].app 	hops
field count 148639
field mean 4.8174368772664
field stddev 0.83286952916754
field sum 716059
field sqrsum 3552675
field min 4
field max 6
statistic Basic.rack[0].node[9].app 	throughput
field count 148473
field mean 74237
field stddev 42860.60759602
field sum 11022190101
field sqrsum 1.0910020946405e+015
field min 1
field max 148473
statistic Basic.rack[0].node[9].app 	"End-to-End Delay"
field count 148473
field mean 0.00041085305907221
field stddev 0.00032958973896916
field sum 61.000586239629
field sqrsum 0.041190701149674
field min 8.496e-007
field max 0.000836933118
statistic Basic.rack[0].node[9].app 	hops
field count 148473
field mean 4.8164447407946
field stddev 0.83132250015077
field sum 715112
field sqrsum 3546906
field min 4
field max 6
statistic Basic.rack[0].eps.queue[0] 	dropsum
field count 0
field mean nan
field stddev nan
field sum 0
field sqrsum 0
field min nan
field max nan
statistic Basic.rack[0].eps.queue[1] 	dropsum
field count 0
field mean nan
field stddev nan
field sum 0
field sqrsum 0
field min nan
field max nan
statistic Basic.rack[0].eps.queue[2] 	dropsum
field count 0
field mean nan
field stddev nan
field sum 0
field sqrsum 0
field min nan
field max nan
statistic Basic.rack[0].eps.queue[3] 	dropsum
field count 0
field mean nan
field stddev nan
field sum 0
field sqrsum 0
field min nan
field max nan
statistic Basic.rack[1].node[0].app 	throughput
field count 154180
field mean 77090.5
field stddev 44508.076589162
field sum 11885813290
field sqrsum 1.2217070906392e+015
field min 1
field max 154180
statistic Basic.rack[1].node[0].app 	"End-to-End Delay"
field count 154180
field mean 0.00030667435093258
field stddev 0.00025386865031919
field sum 47.283051426785
field sqrsum 0.024437226438313
field min 8.496e-007
field max 0.000896831622
statistic Basic.rack[1].node[0].app 	hops
field count 154180
field mean 4.6776235568816
field stddev 0.46738772865741
field sum 721196
field sqrsum 3407164
field min 4
field max 5
statistic Basic.rack[1].node[1].app 	throughput
field count 154307
field mean 77154
field stddev 44544.738331255
field sum 11905402278
field sqrsum 1.224728574675e+015
field min 1
field max 154307
statistic Basic.rack[1].node[1].app 	"End-to-End Delay"
field count 154307
field mean 0.00030589522068129
field stddev 0.00025401538825191
field sum 47.201773817668
field sqrsum 0.024395209196839
field min 8.496e-007
field max 0.000897540951
statistic Basic.rack[1].node[1].app 	hops
field count 154307
field mean 4.6756530811953
field stddev 0.46813183535259
field sum 721486
field sqrsum 3407234
field min 4
field max 5
statistic Basic.rack[1].node[2].app 	throughput
field count 154306
field mean 77153.5
field stddev 44544.449656121
field sum 11905247971
field sqrsum 1.2247047640247e+015
field min 1
field max 154306
statistic Basic.rack[1].node[2].app 	"End-to-End Delay"
field count 154306
field mean 0.00030571504670979
field stddev 0.00025406208771742
field sum 47.173665997601
field sqrsum 0.024381708344937
field min 8.496e-007
field max 0.000902763664
statistic Basic.rack[1].node[2].app 	hops
field count 154306
field mean 4.6755602504115
field stddev 0.46816665718515
field sum 721467
field sqrsum 3407083
field min 4
field max 5
statistic Basic.rack[1].node[3].app 	throughput
field count 154191
field mean 77096
field stddev 44511.252015642
field sum 11887509336
field sqrsum 1.2219685971879e+015
field min 1
field max 154191
statistic Basic.rack[1].node[3].app 	"End-to-End Delay"
field count 154191
field mean 0.00030605112500047
field stddev 0.00025506225482382
field sum 47.190329014948
field sqrsum 0.024473754158111
field min 8.496e-007
field max 0.000893497215
statistic Basic.rack[1].node[3].app 	hops
field count 154191
field mean 4.6742935709607
field stddev 0.4686397075363
field sum 720734
field sqrsum 3402786
field min 4
field max 5
statistic Basic.rack[1].node[4].app 	throughput
field count 154930
field mean 77465.5
field stddev 44724.582940109
field sum 12001729915
field sqrsum 1.2396226777306e+015
field min 1
field max 154930
statistic Basic.rack[1].node[4].app 	"End-to-End Delay"
field count 154930
field mean 0.00030535315278695
field stddev 0.00025435551825308
field sum 47.308363961282
field sqrsum 0.024469157719162
field min 8.496e-007
field max 0.000904847966
statistic Basic.rack[1].node[4].app 	hops
field count 154930
field mean 4.67404634351
field stddev 0.46873157396375
field sum 724150
field sqrsum 3418750
field min 4
field max 5
statistic Basic.rack[1].node[5].app 	throughput
field count 154516
field mean 77258.5
field stddev 44605.071434386
field sum 11937674386
field sqrsum 1.2297117761762e+015
field min 1
field max 154516
statistic Basic.rack[1].node[5].app 	"End-to-End Delay"
field count 154516
field mean 0.00030640084243828
field stddev 0.00025473928249065
field sum 47.343832570194
field sqrsum 0.02453299333107
field min 8.496e-007
field max 0.000908176345
statistic Basic.rack[1].node[5].app 	hops
field count 154516
field mean 4.6753863677548
field stddev 0.46823182388076
field sum 722422
field sqrsum 3411478
field min 4
field max 5
statistic Basic.rack[1].node[6].app 	throughput
field count 154359
field mean 77180
field stddev 44559.749438254
field sum 11913427620
field sqrsum 1.2259671538063e+015
field min 1
field max 154359
statistic Basic.rack[1].node[6].app 	"End-to-End Delay"
field count 154359
field mean 0.00030689687481325
field stddev 0.00025480596318969
field sum 47.372294699298
field sqrsum 0.024560268879246
field min 8.496e-007
field max 0.000902988969
statistic Basic.rack[1].node[6].app 	hops
field count 154359
field mean 4.6766369307912
field stddev 0.46776149067743
field sum 721881
field sqrsum 3409749
field min 4
field max 5
statistic Basic.rack[1].node[7].app 	throughput
field count 153914
field mean 76957.5
field stddev 44431.289003359
field sum 11844836655
field sqrsum 1.2153947408907e+015
field min 1
field max 153914
statistic Basic.rack[1].node[7].app 	"End-to-End Delay"
field count 153914
field mean 0.0003069659055815
field stddev 0.00025426882781962
field sum 47.246350391671
field sqrsum 0.024453900021316
field min 8.496e-007
field max 0.000897042885
statistic Basic.rack[1].node[7].app 	hops
field count 153914
field mean 4.677384773315
field stddev 0.46747840811554
field sum 719915
field sqrsum 3400955
field min 4
field max 5
statistic Basic.rack[1].node[8].app 	throughput
field count 154667
field mean 77334
field stddev 44648.66137971
field sum 11961017778
field sqrsum 1.2333204781192e+015
field min 1
field max 154667
statistic Basic.rack[1].node[8].app 	"End-to-End Delay"
field count 154667
field mean 0.00030655618241039
field stddev 0.00025377143950473
field sum 47.414125064867
field sqrsum 0.02449557483487
field min 8.496e-007
field max 0.000905543855
statistic Basic.rack[1].node[8].app 	hops
field count 154667
field mean 4.6774425055118
field stddev 0.46745649000824
field sum 723446
field sqrsum 3417674
field min 4
field max 5
statistic Basic.rack[1].node[9].app 	throughput
field count 154290
field mean 77145.5
field stddev 44539.830853967
field sum 11902779195
field sqrsum 1.2243238355908e+015
field min 1
field max 154290
statistic Basic.rack[1].node[9].app 	"End-to-End Delay"
field count 154290
field mean 0.00030607696236681
field stddev 0.00025496050555498
field sum 47.224614523575
field sqrsum 0.024483901313183
field min 8.496e-007
field max 0.000910312651
statistic Basic.rack[1].node[9].app 	hops
field count 154290
field mean 4.6744831162097
field stddev 0.46856916797124
field sum 721226
field sqrsum 3405234
field min 4
field max 5
statistic Basic.rack[1].eps.queue[0] 	dropsum
field count 245858
field mean 122929.5
field stddev 70973.235578632
field sum 30223201011
field sqrsum 4.9537539105086e+015
field min 1
field max 245858
statistic Basic.rack[1].eps.queue[1] 	dropsum
field count 780563
field mean 390282
field stddev 225329.27342159
field sum 304639688766
field sqrsum 1.585270811345e+017
field min 1
field max 780563
statistic Basic.rack[1].eps.queue[2] 	dropsum
field count 0
field mean nan
field stddev nan
field sum 0
field sqrsum 0
field min nan
field max nan
statistic Basic.rack[1].eps.queue[3] 	dropsum
field count 0
field mean nan
field stddev nan
field sum 0
field sqrsum 0
field min nan
field max nan
statistic Basic.rack[2].node[0].app 	throughput
field count 106870
field mean 53435.5
field stddev 30850.855971377
field sum 5710651885
field sqrsum 4.068668148506e+014
field min 1
field max 106870
statistic Basic.rack[2].node[0].app 	"End-to-End Delay"
field count 106870
field mean 0.00024398911927151
field stddev 0.00024519890428689
field sum 26.075117176546
field sqrsum 0.012787276611952
field min 8.496e-007
field max 0.000830872392
statistic Basic.rack[2].node[0].app 	hops
field count 106870
field mean 4.5894825488912
field stddev 0.59496446230279
field sum 490478
field sqrsum 2288870
field min 4
field max 6
statistic Basic.rack[2].node[1].app 	throughput
field count 106804
field mean 53402.5
field stddev 30831.803412494
field sum 5703600610
field sqrsum 4.0611347423383e+014
field min 1
field max 106804
statistic Basic.rack[2].node[1].app 	"End-to-End Delay"
field count 106804
field mean 0.00024461119637112
field stddev 0.00024640721138308
field sum 26.125454217221
field sqrsum 0.0128752844375
field min 8.496e-007
field max 0.000830859576
statistic Basic.rack[2].node[1].app 	hops
field count 106804
field mean 4.590998464477
field stddev 0.59790139750437
field sum 490337
field sqrsum 2289317
field min 4
field max 6
statistic Basic.rack[2].node[2].app 	throughput
field count 106784
field mean 53392.5
field stddev 30826.029909802
field sum 5701464720
field sqrsum 4.0588537292856e+014
field min 1
field max 106784
statistic Basic.rack[2].node[2].app 	"End-to-End Delay"
field count 106784
field mean 0.00024324860958535
field stddev 0.00024564642064789
field sum 25.975059525962
field sqrsum 0.012761914409556
field min 8.496e-007
field max 0.000830671671
statistic Basic.rack[2].node[2].app 	hops
field count 106784
field mean 4.5877659574468
field stddev 0.59611333549992
field sum 489900
field sqrsum 2285492
field min 4
field max 6
statistic Basic.rack[2].node[3].app 	throughput
field count 106539
field mean 53270
field stddev 30755.304501825
field sum 5675332530
field sqrsum 4.0309806005329e+014
field min 1
field max 106539
statistic Basic.rack[2].node[3].app 	"End-to-End Delay"
field count 106539
field mean 0.00024414259864286
field stddev 0.00024607958078151
field sum 26.010708316811
field sqrsum 0.012801747565356
field min 8.496e-007
field max 0.000830740288
statistic Basic.rack[2].node[3].app 	hops
field count 106539
field mean 4.589896657562
field stddev 0.59716241253982
field sum 489003
field sqrsum 2282465
field min 4
field max 6
statistic Basic.rack[2].node[4].app 	throughput
field count 106465
field mean 53233
field stddev 30733.942541865
field sum 5667451345
field sqrsum 4.0225869411406e+014
field min 1
field max 106465
statistic Basic.rack[2].node[4].app 	"End-to-End Delay"
field count 106465
field mean 0.000244811382038
field stddev 0.000246600509121
field sum 26.063843788675
field sqrsum 0.012854994275944
field min 8.496e-007
field max 0.000830745131
statistic Basic.rack[2].node[4].app 	hops
field count 106465
field mean 4.5915934814258
field stddev 0.59849554149563
field sum 488844
field sqrsum 2282708
field min 4
field max 6
statistic Basic.rack[2].node[5].app 	throughput
field count 106992
field mean 53496.5
field stddev 30886.074337798
field sum 5723697528
field sqrsum 4.0826180517636e+014
field min 1
field max 106992
statistic Basic.rack[2].node[5].app 	"End-to-End Delay"
field count 106992
field mean 0.00024300094329047
field stddev 0.00024534948281093
field sum 25.999156924534
field sqrsum 0.012758289342668
field min 8.496e-007
field max 0.000830721259
statistic Basic.rack[2].node[5].app 	hops
field count 106992
field mean 4.5871560490504
field stddev 0.59537516709828
field sum 490789
field sqrsum 2289251
field min 4
field max 6
statistic Basic.rack[2].node[6].app 	throughput
field count 106577
field mean 53289
field stddev 30766.27415694
field sum 5679381753
field sqrsum 4.035295391869e+014
field min 1
field max 106577
statistic Basic.rack[2].node[6].app 	"End-to-End Delay"
field count 106577
field mean 0.00024435541165472
field stddev 0.00024575044035428
field sum 26.042666707926
field sqrsum 0.012800140639706
field min 8.496e-007
field max 0.00083080906
statistic Basic.rack[2].node[6].app 	hops
field count 106577
field mean 4.5904651097329
field stddev 0.59641335485438
field sum 489238
field sqrsum 2283740
field min 4
field max 6
statistic Basic.rack[2].node[7].app 	throughput
field count 106706
field mean 53353.5
field stddev 30803.513249303
field sum 5693138571
field sqrsum 4.0499659395094e+014
field min 1
field max 106706
statistic Basic.rack[2].node[7].app 	"End-to-End Delay"
field count 106706
field mean 0.00024438006719613
field stddev 0.00024608107515271
field sum 26.076819450231
field sqrsum 0.012834271723991
field min 8.496e-007
field max 0.000830675079
statistic Basic.rack[2].node[7].app 	hops
field count 106706
field mean 4.590454145034
field stddev 0.59711626478728
field sum 489829
field sqrsum 2286583
field min 4
field max 6
statistic Basic.rack[2].node[8].app 	throughput
field count 106656
field mean 53328.5
field stddev 30789.079492573
field sum 5687804496
field sqrsum 4.0442754681842e+014
field min 1
field max 106656
statistic Basic.rack[2].node[8].app 	"End-to-End Delay"
field count 106656
field mean 0.00024368220496729
field stddev 0.00024557334669135
field sum 25.990169252991
field sqrsum 0.012765306829128
field min 8.496e-007
field max 0.000830798323
statistic Basic.rack[2].node[8].app 	hops
field count 106656
field mean 4.5888088808881
field stddev 0.59594682329427
field sum 489424
field sqrsum 2283752
field min 4
field max 6
statistic Basic.rack[2].node[9].app 	throughput
field count 106771
field mean 53386
field stddev 30822.277133052
field sum 5700076606
field sqrsum 4.0573715289169e+014
field min 1
field max 106771
statistic Basic.rack[2].node[9].app 	"End-to-End Delay"
field count 106771
field mean 0.00024398679650657
field stddev 0.00024577512919027
field sum 26.050714249803
field sqrsum 0.012805516383017
field min 8.496e-007
field max 0.00083070788
statistic Basic.rack[2].node[9].app 	hops
field count 106771
field mean 4.5896263966807
field stddev 0.59649211988632
field sum 490039
field sqrsum 2287085
field min 4
field max 6
statistic Basic.rack[2].eps.queue[0] 	dropsum
field count 0
field mean nan
field stddev nan
field sum 0
field sqrsum 0
field min nan
field max nan
statistic Basic.rack[2].eps.queue[1] 	dropsum
field count 2202100
field mean 1101050.5
field stddev 635691.65823029
field sum 2424623306050
field sqrsum 3.5595094630471e+018
field min 1
field max 2202100
statistic Basic.rack[2].eps.queue[2] 	dropsum
field count 0
field mean nan
field stddev nan
field sum 0
field sqrsum 0
field min nan
field max nan
statistic Basic.rack[2].eps.queue[3] 	dropsum
field count 0
field mean nan
field stddev nan
field sum 0
field sqrsum 0
field min nan
field max nan
statistic Basic.rack[3].node[0].app 	throughput
field count 56527
field mean 28264
field stddev 16318.08367017
field sum 1597679128
field sqrsum 60208537938680
field min 1
field max 56527
statistic Basic.rack[3].node[0].app 	"End-to-End Delay"
field count 56527
field mean 0.0005516102009994
field stddev 0.00019456832551085
field sum 31.180869831893
field sqrsum 0.019339581233976
field min 0.000333973914
field max 0.000932708874
statistic Basic.rack[3].node[0].app 	hops
field count 56527
field mean 4.1638509031082
field stddev 0.90280998131047
field sum 235370
field sqrsum 1026118
field min 3
field max 5
statistic Basic.rack[3].node[1].app 	throughput
field count 56238
field mean 28119.5
field stddev 16234.656556269
field sum 1581384441
field sqrsum 59289792590119
field min 1
field max 56238
statistic Basic.rack[3].node[1].app 	"End-to-End Delay"
field count 56238
field mean 0.00055191842269545
field stddev 0.00019465059537246
field sum 31.038788255547
field sqrsum 0.019261634554459
field min 3.714582e-005
field max 0.00093913435
statistic Basic.rack[3].node[1].app 	hops
field count 56238
field mean 4.1727479640101
field stddev 0.90065950125574
field sum 234667
field sqrsum 1024825
field min 3
field max 5
statistic Basic.rack[3].node[2].app 	throughput
field count 56265
field mean 28133
field stddev 16242.450784903
field sum 1582903245
field sqrsum 59375228354365
field min 1
field max 56265
statistic Basic.rack[3].node[2].app 	"End-to-End Delay"
field count 56265
field mean 0.00055158284837054
field stddev 0.00019455337739912
field sum 31.034808963568
field sqrsum 0.019247917927973
field min 0.000193934068
field max 0.000899579622
statistic Basic.rack[3].node[2].app 	hops
field count 56265
field mean 4.1782280280814
field stddev 0.89925804502214
field sum 235088
field sqrsum 1027750
field min 3
field max 5
statistic Basic.rack[3].node[3].app 	throughput
field count 56153
field mean 28077
field stddev 16210.119169827
field sum 1576607781
field sqrsum 59021363353589
field min 1
field max 56153
statistic Basic.rack[3].node[3].app 	"End-to-End Delay"
field count 56153
field mean 0.00055293448195083
field stddev 0.00019508471658421
field sum 31.048929964985
field sqrsum 0.019305059440512
field min 0.000392798823
field max 0.000898154381
statistic Basic.rack[3].node[3].app 	hops
field count 56153
field mean 4.1655298915463
field stddev 0.90185100035977
field sum 233907
field sqrsum 1020017
field min 3
field max 5
statistic Basic.rack[3].node[4].app 	throughput
field count 56195
field mean 28098
field stddev 16222.243525481
field sum 1578967110
field sqrsum 59153897486670
field min 1
field max 56195
statistic Basic.rack[3].node[4].app 	"End-to-End Delay"
field count 56195
field mean 0.00055168806892025
field stddev 0.00019462114429081
field sum 31.002111032974
field sqrsum 0.019231976810938
field min 0.000377287321
field max 0.000905469808
statistic Basic.rack[3].node[4].app 	hops
field count 56195
field mean 4.1729513301895
field stddev 0.90099743858964
field sum 234499
field sqrsum 1024171
field min 3
field max 5
statistic Basic.rack[3].node[5].app 	throughput
field count 56379
field mean 28190
field stddev 16275.359750248
field sum 1589324010
field sqrsum 59736862014530
field min 1
field max 56379
statistic Basic.rack[3].node[5].app 	"End-to-End Delay"
field count 56379
field mean 0.0005528479972963
field stddev 0.00019507117107325
field sum 31.169017239568
field sqrsum 0.019377067362441
field min 8.992e-006
field max 0.000909569342
statistic Basic.rack[3].node[5].app 	hops
field count 56379
field mean 4.1695844197308
field stddev 0.9018646688151
field sum 235077
field sqrsum 1026029
field min 3
field max 5
statistic Basic.rack[3].node[6].app 	throughput
field count 56134
field mean 28067.5
field stddev 16204.63434227
field sum 1575541045
field sqrsum 58961472527035
field min 1
field max 56134
statistic Basic.rack[3].node[6].app 	"End-to-End Delay"
field count 56134
field mean 0.00055324064802937
field stddev 0.00019514263714657
field sum 31.055610536481
field sqrsum 0.019318807159066
field min 0.000144596195
field max 0.000899311417
statistic Basic.rack[3].node[6].app 	hops
field count 56134
field mean 4.1658887661667
field stddev 0.89995559849712
field sum 233848
field sqrsum 1019648
field min 3
field max 5
statistic Basic.rack[3].node[7].app 	throughput
field count 56131
field mean 28066
field stddev 16203.768316866
field sum 1575372646
field sqrsum 58952019785966
field min 1
field max 56131
statistic Basic.rack[3].node[7].app 	"End-to-End Delay"
field count 56131
field mean 0.00055490710827863
field stddev 0.00019572950382436
field sum 31.147490894788
field sqrsum 0.019434306572959
field min 0.00039732246
field max 0.000913115537
statistic Basic.rack[3].node[7].app 	hops
field count 56131
field mean 4.1747875505514
field stddev 0.89806648753086
field sum 234335
field sqrsum 1023569
field min 3
field max 5
statistic Basic.rack[3].node[8].app 	throughput
field count 56186
field mean 28093.5
field stddev 16219.645449269
field sum 1578461391
field sqrsum 59125480630281
field min 1
field max 56186
statistic Basic.rack[3].node[8].app 	"End-to-End Delay"
field count 56186
field mean 0.00055353384767103
field stddev 0.00019529105103895
field sum 31.100852765245
field sqrsum 0.01935819163549
field min 9.2285574e-005
field max 0.000899964793
statistic Basic.rack[3].node[8].app 	hops
field count 56186
field mean 4.1702915316983
field stddev 0.89975079484878
field sum 234312
field sqrsum 1022634
field min 3
field max 5
statistic Basic.rack[3].node[9].app 	throughput
field count 56816
field mean 28408.5
field stddev 16401.510784071
field sum 1614057336
field sqrsum 61136725753896
field min 1
field max 56816
statistic Basic.rack[3].node[9].app 	"End-to-End Delay"
field count 56816
field mean 0.00055293567998606
field stddev 0.00019501910289243
field sum 31.415593594088
field sqrsum 0.019531616280871
field min 0.000130880354
field max 0.000910380594
statistic Basic.rack[3].node[9].app 	hops
field count 56816
field mean 4.1620846240496
field stddev 0.90152620452281
field sum 236473
field sqrsum 1030397
field min 3
field max 5
statistic Basic.rack[3].eps.queue[0] 	dropsum
field count 0
field mean nan
field stddev nan
field sum 0
field sqrsum 0
field min nan
field max nan
statistic Basic.rack[3].eps.queue[1] 	dropsum
field count 156992
field mean 78496.5
field stddev 45319.831067646
field sum 12323322528
field sqrsum 1.2897794746514e+015
field min 1
field max 156992
statistic Basic.rack[3].eps.queue[2] 	dropsum
field count 0
field mean nan
field stddev nan
field sum 0
field sqrsum 0
field min nan
field max nan
statistic Basic.rack[3].eps.queue[3] 	dropsum
field count 0
field mean nan
field stddev nan
field sum 0
field sqrsum 0
field min nan
field max nan
statistic Basic.rack[4].node[0].app 	throughput
field count 144895
field mean 72448
field stddev 41827.727964434
field sum 10497352960
field sqrsum 1.0140128038771e+015
field min 1
field max 144895
statistic Basic.rack[4].node[0].app 	"End-to-End Delay"
field count 144895
field mean 0.00040198140293745
field stddev 0.00033208700058609
field sum 58.245095378622
field sqrsum 0.039392612800221
field min 8.496e-007
field max 0.000831998656
statistic Basic.rack[4].node[0].app 	hops
field count 144895
field mean 4.7786604092619
field stddev 0.80751444278926
field sum 692404
field sqrsum 3403246
field min 4
field max 6
statistic Basic.rack[4].node[1].app 	throughput
field count 146080
field mean 73040.5
field stddev 42169.807998931
field sum 10669756240
field sqrsum 1.0390955509449e+015
field min 1
field max 146080
statistic Basic.rack[4].node[1].app 	"End-to-End Delay"
field count 146080
field mean 0.00040108706704439
field stddev 0.00033145376775619
field sum 58.590798753845
field sqrsum 0.039548484317708
field min 8.496e-007
field max 0.000831995851
statistic Basic.rack[4].node[1].app 	hops
field count 146080
field mean 4.7787855969332
field stddev 0.80600967943571
field sum 698085
field sqrsum 3430899
field min 4
field max 6
statistic Basic.rack[4].node[2].app 	throughput
field count 145282
field mean 72641.5
field stddev 41939.445241523
field sum 10553502403
field sqrsum 1.0221594752426e+015
field min 1
field max 145282
statistic Basic.rack[4].node[2].app 	"End-to-End Delay"
field count 145282
field mean 0.00040104093357226
field stddev 0.0003317606048591
field sum 58.264028911246
field sqrsum 0.039356628186837
field min 8.496e-007
field max 0.000831998417
statistic Basic.rack[4].node[2].app 	hops
field count 145282
field mean 4.7767376550433
field stddev 0.80639485477037
field sum 693974
field sqrsum 3409404
field min 4
field max 6
statistic Basic.rack[4].node[3].app 	throughput
field count 145084
field mean 72542.5
field stddev 41882.287564872
field sum 10524756070
field sqrsum 1.0179859813586e+015
field min 1
field max 145084
statistic Basic.rack[4].node[3].app 	"End-to-End Delay"
field count 145084
field mean 0.00040141217606404
field stddev 0.00033182787138182
field sum 58.238484152075
field sqrsum 0.039352687515001
field min 8.496e-007
field max 0.000831997814
statistic Basic.rack[4].node[3].app 	hops
field count 145084
field mean 4.7785007306112
field stddev 0.80690066524554
field sum 693284
field sqrsum 3407320
field min 4
field max 6
statistic Basic.rack[4].node[4].app 	throughput
field count 145143
field mean 72572
field stddev 41899.319397814
field sum 10533317796
field sqrsum 1.0192284076825e+015
field min 1
field max 145143
statistic Basic.rack[4].node[4].app 	"End-to-End Delay"
field count 145143
field mean 0.00040054167685829
field stddev 0.00033165822998221
field sum 58.135820604243
field sqrsum 0.039251029989796
field min 8.496e-007
field max 0.000831998903
statistic Basic.rack[4].node[4].app 	hops
field count 145143
field mean 4.7778604548618
field stddev 0.80652258583884
field sum 693473
field sqrsum 3407729
field min 4
field max 6
statistic Basic.rack[4].node[5].app 	throughput
field count 145191
field mean 72596
field stddev 41913.175804274
field sum 10540285836
field sqrsum 1.0202399406384e+015
field min 1
field max 145191
statistic Basic.rack[4].node[5].app 	"End-to-End Delay"
field count 145191
field mean 0.00040325714383981
field stddev 0.00033171910963101
field sum 58.549307971247
field sqrsum 0.039586781159831
field min 8.496e-007
field max 0.00083199884
statistic Basic.rack[4].node[5].app 	hops
field count 145191
field mean 4.781901082023
field stddev 0.8079503686604
field sum 694289
field sqrsum 3414799
field min 4
field max 6
statistic Basic.rack[4].node[6].app 	throughput
field count 145076
field mean 72538.5
field stddev 41879.978163796
field sum 10523595426
field sqrsum 1.0178175945467e+015
field min 1
field max 145076
statistic Basic.rack[4].node[6].app 	"End-to-End Delay"
field count 145076
field mean 0.00040300826165607
field stddev 0.00033144410218831
field sum 58.466826568016
field sqrsum 0.039499856246123
field min 8.496e-007
field max 0.000831998993
statistic Basic.rack[4].node[6].app 	hops
field count 145076
field mean 4.7810044390526
field stddev 0.80671527608885
field sum 693609
field sqrsum 3410561
field min 4
field max 6
statistic Basic.rack[4].node[7].app 	throughput
field count 145864
field mean 72932.5
field stddev 42107.454169858
field sum 10638226180
field sqrsum 1.0344930284217e+015
field min 1
field max 145864
statistic Basic.rack[4].node[7].app 	"End-to-End Delay"
field count 145864
field mean 0.00040164788676249
field stddev 0.00033134596697347
field sum 58.585967354724
field sqrsum 0.039545250606554
field min 8.496e-007
field max 0.000831997455
statistic Basic.rack[4].node[7].app 	hops
field count 145864
field mean 4.7821943728405
field stddev 0.80709846504192
field sum 697550
field sqrsum 3430836
field min 4
field max 6
statistic Basic.rack[4].node[8].app 	throughput
field count 145687
field mean 72844
field stddev 42056.358671034
field sum 10612423828
field sqrsum 1.0307316642945e+015
field min 1
field max 145687
statistic Basic.rack[4].node[8].app 	"End-to-End Delay"
field count 145687
field mean 0.00040163015621127
field stddev 0.00033173800907051
field sum 58.512292567952
field sqrsum 0.039533061043516
field min 8.496e-007
field max 0.000831998673
statistic Basic.rack[4].node[8].app 	hops
field count 145687
field mean 4.7821768586078
field stddev 0.80757706777262
field sum 696701
field sqrsum 3426761
field min 4
field max 6
statistic Basic.rack[4].node[9].app 	throughput
field count 144761
field mean 72381
field stddev 41789.045496398
field sum 10477945941
field sqrsum 1.0112021142254e+015
field min 1
field max 144761
statistic Basic.rack[4].node[9].app 	"End-to-End Delay"
field count 144761
field mean 0.00040034245049729
field stddev 0.00033177277686531
field sum 57.953973476438
field sqrsum 0.039135628638493
field min 8.496e-007
field max 0.000831998672
statistic Basic.rack[4].node[9].app 	hops
field count 144761
field mean 4.7763002466134
field stddev 0.80635827652267
field sum 691422
field sqrsum 3396564
field min 4
field max 6
statistic Basic.rack[4].eps.queue[0] 	dropsum
field count 0
field mean nan
field stddev nan
field sum 0
field sqrsum 0
field min nan
field max nan
statistic Basic.rack[4].eps.queue[1] 	dropsum
field count 0
field mean nan
field stddev nan
field sum 0
field sqrsum 0
field min nan
field max nan
statistic Basic.rack[4].eps.queue[2] 	dropsum
field count 0
field mean nan
field stddev nan
field sum 0
field sqrsum 0
field min nan
field max nan
statistic Basic.rack[4].eps.queue[3] 	dropsum
field count 0
field mean nan
field stddev nan
field sum 0
field sqrsum 0
field min nan
field max nan
statistic Basic.rack[5].node[0].app 	throughput
field count 151491
field mean 75746
field stddev 43731.829152232
field sum 11474837286
field sqrsum 1.158893541808e+015
field min 1
field max 151491
statistic Basic.rack[5].node[0].app 	"End-to-End Delay"
field count 151491
field mean 0.00031305818763107
field stddev 0.0002550576220285
field sum 47.425497902419
field sqrsum 0.024702030045984
field min 8.496e-007
field max 0.000890419333
statistic Basic.rack[5].node[0].app 	hops
field count 151491
field mean 4.6692146728188
field stddev 0.47049745563986
field sum 707344
field sqrsum 3336276
field min 4
field max 5
statistic Basic.rack[5].node[1].app 	throughput
field count 150786
field mean 75393.5
field stddev 43528.313182341
field sum 11368284291
field sqrsum 1.1427891994966e+015
field min 1
field max 150786
statistic Basic.rack[5].node[1].app 	"End-to-End Delay"
field count 150786
field mean 0.00031278579860367
field stddev 0.00025504021032468
field sum 47.163719428253
field sqrsum 0.024560028703327
field min 8.496e-007
field max 0.000896955782
statistic Basic.rack[5].node[1].app 	hops
field count 150786
field mean 4.6687955115196
field stddev 0.470648004695
field sum 703989
field sqrsum 3320181
field min 4
field max 5
statistic Basic.rack[5].node[2].app 	throughput
field count 151265
field mean 75633
field stddev 43666.588571813
field sum 11440625745
field sqrsum 1.1537146490869e+015
field min 1
field max 151265
statistic Basic.rack[5].node[2].app 	"End-to-End Delay"
field count 151265
field mean 0.00031187624752612
field stddev 0.0002544489488425
field sum 47.175960582038
field sqrsum 0.024506538449029
field min 8.496e-007
field max 0.000901630231
statistic Basic.rack[5].node[2].app 	hops
field count 151265
field mean 4.6680791987571
field stddev 0.47090428849298
field sum 706117
field sqrsum 3329753
field min 4
field max 5
statistic Basic.rack[5].node[3].app 	throughput
field count 150418
field mean 75209.5
field stddev 43422.08073281
field sum 11312862571
field sqrsum 1.1344425457573e+015
field min 1
field max 150418
statistic Basic.rack[5].node[3].app 	"End-to-End Delay"
field count 150418
field mean 0.00031253996045202
field stddev 0.0002540529764697
field sum 47.011635771272
field sqrsum 0.024401366408199
field min 8.496e-007
field max 0.000899981876
statistic Basic.rack[5].node[3].app 	hops
field count 150418
field mean 4.6697802124746
field stddev 0.4702936846931
field sum 702419
field sqrsum 3313411
field min 4
field max 5
statistic Basic.rack[5].node[4].app 	throughput
field count 150668
field mean 75334.5
field stddev 43494.249516459
field sum 11350498446
field sqrsum 1.1401083834074e+015
field min 1
field max 150668
statistic Basic.rack[5].node[4].app 	"End-to-End Delay"
field count 150668
field mean 0.00031298315980088
field stddev 0.00025406424327723
field sum 47.156546720879
field sqrsum 0.024484554897491
field min 8.496e-007
field max 0.00090572719
statistic Basic.rack[5].node[4].app 	hops
field count 150668
field mean 4.6707728250192
field stddev 0.46993415279338
field sum 703736
field sqrsum 3320264
field min 4
field max 5
statistic Basic.rack[5].node[5].app 	throughput
field count 151131
field mean 75566
field stddev 43627.906103777
field sum 11420365146
field sqrsum 1.1506512767085e+015
field min 1
field max 151131
statistic Basic.rack[5].node[5].app 	"End-to-End Delay"
field count 151131
field mean 0.00031379161471647
field stddev 0.00025490857085009
field sum 47.423640523715
field sqrsum 0.024701323228423
field min 8.496e-007
field max 0.000890655178
statistic Basic.rack[5].node[5].app 	hops
field count 151131
field mean 4.6707558343424
field stddev 0.46994032207583
field sum 705896
field sqrsum 3330444
field min 4
field max 5
statistic Basic.rack[5].node[6].app 	throughput
field count 151110
field mean 75555.5
field stddev 43621.843925951
field sum 11417191605
field sqrsum 1.1501716880182e+015
field min 1
field max 151110
statistic Basic.rack[5].node[6].app 	"End-to-End Delay"
field count 151110
field mean 0.00031189823327466
field stddev 0.0002543488639242
field sum 47.130942030133
field sqrsum 0.024475804157837
field min 8.496e-007
field max 0.00089556086
statistic Basic.rack[5].node[6].app 	hops
field count 151110
field mean 4.6682813844219
field stddev 0.47083207482778
field sum 705424
field sqrsum 3326616
field min 4
field max 5
statistic Basic.rack[5].node[7].app 	throughput
field count 151307
field mean 75654
field stddev 43678.712927466
field sum 11446979778
field sqrsum 1.1546759285065e+015
field min 1
field max 151307
statistic Basic.rack[5].node[7].app 	"End-to-End Delay"
field count 151307
field mean 0.00031357242696439
field stddev 0.00025466165105822
field sum 47.445703206701
field sqrsum 0.024690245220327
field min 8.496e-007
field max 0.000900577199
statistic Basic.rack[5].node[7].app 	hops
field count 151307
field mean 4.6707885292815
field stddev 0.46992843898511
field sum 706723
field sqrsum 3334367
field min 4
field max 5
statistic Basic.rack[5].node[8].app 	throughput
field count 151716
field mean 75858.5
field stddev 43796.781057516
field sum 11508948186
field sqrsum 1.1640648916408e+015
field min 1
field max 151716
statistic Basic.rack[5].node[8].app 	"End-to-End Delay"
field count 151716
field mean 0.00031303053187782
field stddev 0.0002540771866169
field sum 47.491740174375
field sqrsum 0.024660359397204
field min 8.496e-007
field max 0.000901338212
statistic Basic.rack[5].node[8].app 	hops
field count 151716
field mean 4.6707137019167
field stddev 0.46995562313144
field sum 708622
field sqrsum 3343278
field min 4
field max 5
statistic Basic.rack[5].node[9].app 	throughput
field count 151082
field mean 75541.5
field stddev 43613.761022182
field sum 11412960903
field sqrsum 1.1495324437517e+015
field min 1
field max 151082
statistic Basic.rack[5].node[9].app 	"End-to-End Delay"
field count 151082
field mean 0.00031264233421706
field stddev 0.00025467871153855
field sum 47.234629138182
field sqrsum 0.024566846633325
field min 8.496e-007
field max 0.000889403239
statistic Basic.rack[5].node[9].app 	hops
field count 151082
field mean 4.6690671291087
field stddev 0.47055049824853
field sum 705412
field sqrsum 3327068
field min 4
field max 5
statistic Basic.rack[5].eps.queue[0] 	dropsum
field count 214551
field mean 107276
field stddev 61935.683139851
field sum 23016173076
field sqrsum 3.2921029718103e+015
field min 1
field max 214551
statistic Basic.rack[5].eps.queue[1] 	dropsum
field count 780592
field mean 390296.5
field stddev 225337.64500049
field sum 304662325528
field sqrsum 1.5854475089291e+017
field min 1
field max 780592
statistic Basic.rack[5].eps.queue[2] 	dropsum
field count 0
field mean nan
field stddev nan
field sum 0
field sqrsum 0
field min nan
field max nan
statistic Basic.rack[5].eps.queue[3] 	dropsum
field count 0
field mean nan
field stddev nan
field sum 0
field sqrsum 0
field min nan
field max nan
statistic Basic.rack[6].node[0].app 	throughput
field count 107988
field mean 53994.5
field stddev 31173.594771858
field sum 5830758066
field sqrsum 4.1976987827349e+014
field min 1
field max 107988
statistic Basic.rack[6].node[0].app 	"End-to-End Delay"
field count 107988
field mean 0.00025537322227415
field stddev 0.0002615841046894
field sum 27.577243526941
field sqrsum 0.014431634332969
field min 8.496e-007
field max 0.000832281125
statistic Basic.rack[6].node[0].app 	hops
field count 107988
field mean 4.617031522021
field stddev 0.63446673984909
field sum 498584
field sqrsum 2345448
field min 4
field max 6
statistic Basic.rack[6].node[1].app 	throughput
field count 107929
field mean 53965
field stddev 31156.562938917
field sum 5824388485
field sqrsum 4.190822246612e+014
field min 1
field max 107929
statistic Basic.rack[6].node[1].app 	"End-to-End Delay"
field count 107929
field mean 0.00025551983762672
field stddev 0.00026165792169543
field sum 27.578000555214
field sqrsum 0.014436002495928
field min 8.496e-007
field max 0.000832343761
statistic Basic.rack[6].node[1].app 	hops
field count 107929
field mean 4.6173502951014
field stddev 0.63456709117394
field sum 498346
field sqrsum 2344498
field min 4
field max 6
statistic Basic.rack[6].node[2].app 	throughput
field count 107311
field mean 53656
field stddev 30978.161705735
field sum 5757879016
field sqrsum 4.1192442268366e+014
field min 1
field max 107311
statistic Basic.rack[6].node[2].app 	"End-to-End Delay"
field count 107311
field mean 0.00025729680829227
field stddev 0.00026115581590484
field sum 27.610777794652
field sqrsum 0.014422960272046
field min 8.496e-007
field max 0.000832249886
statistic Basic.rack[6].node[2].app 	hops
field count 107311
field mean 4.6216044953453
field stddev 0.63333067603377
field sum 495949
field sqrsum 2335123
field min 4
field max 6
statistic Basic.rack[6].node[3].app 	throughput
field count 107292
field mean 53646.5
field stddev 30972.676878178
field sum 5755840278
field sqrsum 4.1170566201821e+014
field min 1
field max 107292
statistic Basic.rack[6].node[3].app 	"End-to-End Delay"
field count 107292
field mean 0.00025600279984359
field stddev 0.00026203878477999
field sum 27.467052400819
field sqrsum 0.014398706382557
field min 8.496e-007
field max 0.000832339113
statistic Basic.rack[6].node[3].app 	hops
field count 107292
field mean 4.6185363307609
field stddev 0.63552115480694
field sum 495532
field sqrsum 2331966
field min 4
field max 6
statistic Basic.rack[6].node[4].app 	throughput
field count 107867
field mean 53934
field stddev 31138.665080571
field sum 5817698778
field sqrsum 4.1836041529061e+014
field min 1
field max 107867
statistic Basic.rack[6].node[4].app 	"End-to-End Delay"
field count 107867
field mean 0.00025532222986849
field stddev 0.0002608461599058
field sum 27.540842969225
field sqrsum 0.014371069649857
field min 8.496e-007
field max 0.000832353022
statistic Basic.rack[6].node[4].app 	hops
field count 107867
field mean 4.6167966106409
field stddev 0.63253532639369
field sum 498000
field sqrsum 2342322
field min 4
field max 6
statistic Basic.rack[6].node[5].app 	throughput
field count 107386
field mean 53693.5
field stddev 30999.81234083
field sum 5765930191
field sqrsum 4.1278870830388e+014
field min 1
field max 107386
statistic Basic.rack[6].node[5].app 	"End-to-End Delay"
field count 107386
field mean 0.00025714415757329
field stddev 0.00026194705776291
field sum 27.613682505165
field sqrsum 0.014469054320358
field min 8.496e-007
field max 0.000832278462
statistic Basic.rack[6].node[5].app 	hops
field count 107386
field mean 4.6212727916116
field stddev 0.63527012947354
field sum 496260
field sqrsum 2336690
field min 4
field max 6
statistic Basic.rack[6].node[6].app 	throughput
field count 107683
field mean 53842
field stddev 31085.548855805
field sum 5797868086
field sqrsum 4.1622315202585e+014
field min 1
field max 107683
statistic Basic.rack[6].node[6].app 	"End-to-End Delay"
field count 107683
field mean 0.0002583493975298
field stddev 0.00026191691927442
field sum 27.819838174202
field sqrsum 0.014574274522432
field min 8.496e-007
field max 0.000832380369
statistic Basic.rack[6].node[6].app 	hops
field count 107683
field mean 4.6241003686747
field stddev 0.6351335103037
field sum 497937
field sqrsum 2345949
field min 4
field max 6
statistic Basic.rack[6].node[7].app 	throughput
field count 107676
field mean 53838.5
field stddev 31083.528129863
field sum 5797114326
field sqrsum 4.1614198714903e+014
field min 1
field max 107676
statistic Basic.rack[6].node[7].app 	"End-to-End Delay"
field count 107676
field mean 0.00025563194698107
field stddev 0.00026162502056589
field sum 27.525425523134
field sqrsum 0.01440647898096
field min 8.496e-007
field max 0.00083234995
statistic Basic.rack[6].node[7].app 	hops
field count 107676
field mean 4.617658531149
field stddev 0.63455473214895
field sum 497211
field sqrsum 2339307
field min 4
field max 6
statistic Basic.rack[6].node[8].app 	throughput
field count 107675
field mean 53838
field stddev 31083.239454729
field sum 5797006650
field sqrsum 4.1613039302805e+014
field min 1
field max 107675
statistic Basic.rack[6].node[8].app 	"End-to-End Delay"
field count 107675
field mean 0.00025466144142681
field stddev 0.00026253778726249
field sum 27.420670705631
field sqrsum 0.014404535313524
field min 8.496e-007
field max 0.000832309061
statistic Basic.rack[6].node[8].app 	hops
field count 107675
field mean 4.615231019271
field stddev 0.63665181229915
field sum 496945
field sqrsum 2337159
field min 4
field max 6
statistic Basic.rack[6].node[9].app 	throughput
field count 107829
field mean 53915
field stddev 31127.695425457
field sum 5813600535
field sqrsum 4.1791842592586e+014
field min 1
field max 107829
statistic Basic.rack[6].node[9].app 	"End-to-End Delay"
field count 107829
field mean 0.00025537929509646
field stddev 0.00026150270901312
field sum 27.537294010956
field sqrsum 0.014406128759378
field min 8.496e-007
field max 0.000832338353
statistic Basic.rack[6].node[9].app 	hops
field count 107829
field mean 4.6169583321741
field stddev 0.6341763752935
field sum 497842
field sqrsum 2341882
field min 4
field max 6
statistic Basic.rack[6].eps.queue[0] 	dropsum
field count 0
field mean nan
field stddev nan
field sum 0
field sqrsum 0
field min nan
field max nan
statistic Basic.rack[6].eps.queue[1] 	dropsum
field count 2202055
field mean 1101028
field stddev 635678.66784923
field sum 2424524212540
field sqrsum 3.5592912514088e+018
field min 1
field max 2202055
statistic Basic.rack[6].eps.queue[2] 	dropsum
field count 0
field mean nan
field stddev nan
field sum 0
field sqrsum 0
field min nan
field max nan
statistic Basic.rack[6].eps.queue[3] 	dropsum
field count 0
field mean nan
field stddev nan
field sum 0
field sqrsum 0
field min nan
field max nan
statistic Basic.rack[7].node[0].app 	throughput
field count 66148
field mean 33074.5
field stddev 19095.427140199
field sum 2187812026
field sqrsum 96480322534574
field min 1
field max 66148
statistic Basic.rack[7].node[0].app 	"End-to-End Delay"
field count 66148
field mean 0.00068046056949392
field stddev 0.00020177756753607
field sum 45.011105750884
field sqrsum 0.033321403964463
field min 0.000118838768
field max 0.000911433889
statistic Basic.rack[7].node[0].app 	hops
field count 66148
field mean 4.3304559472698
field stddev 0.76808341250913
field sum 286451
field sqrsum 1279487
field min 3
field max 5
statistic Basic.rack[7].node[1].app 	throughput
field count 65708
field mean 32854.5
field stddev 18968.410080974
field sum 2158803486
field sqrsum 94567825906554
field min 1
field max 65708
statistic Basic.rack[7].node[1].app 	"End-to-End Delay"
field count 65708
field mean 0.00068031161908183
field stddev 0.00020179363228829
field sum 44.701915866629
field sqrsum 0.033086865825085
field min 0.000300715673
field max 0.00090236348
statistic Basic.rack[7].node[1].app 	hops
field count 65708
field mean 4.3340689109393
field stddev 0.76774519439644
field sum 284783
field sqrsum 1272999
field min 3
field max 5
statistic Basic.rack[7].node[2].app 	throughput
field count 66134
field mean 33067.5
field stddev 19091.385688315
field sum 2186886045
field sqrsum 96419076762035
field min 1
field max 66134
statistic Basic.rack[7].node[2].app 	"End-to-End Delay"
field count 66134
field mean 0.00068020302303656
field stddev 0.00020179758932457
field sum 44.9845467255
field sqrsum 0.033291710359909
field min 0.000306562904
field max 0.000896998697
statistic Basic.rack[7].node[2].app 	hops
field count 66134
field mean 4.3370127317265
field stddev 0.76724977985518
field sum 286824
field sqrsum 1282890
field min 3
field max 5
statistic Basic.rack[7].node[3].app 	throughput
field count 65730
field mean 32865.5
field stddev 18974.760933935
field sum 2160249315
field sqrsum 94662845066405
field min 1
field max 65730
statistic Basic.rack[7].node[3].app 	"End-to-End Delay"
field count 65730
field mean 0.00068094054855509
field stddev 0.000201624225737
field sum 44.758222256526
field sqrsum 0.033149725309379
field min 0.000195925512
field max 0.00090624294
statistic Basic.rack[7].node[3].app 	hops
field count 65730
field mean 4.3320401643085
field stddev 0.76762036596459
field sum 284745
field sqrsum 1272257
field min 3
field max 5
statistic Basic.rack[7].node[4].app 	throughput
field count 65814
field mean 32907.5
field stddev 18999.009645242
field sum 2165774205
field sqrsum 95026230943315
field min 1
field max 65814
statistic Basic.rack[7].node[4].app 	"End-to-End Delay"
field count 65814
field mean 0.00068162857749109
field stddev 0.00020143733574601
field sum 44.860703198998
field sqrsum 0.033248831423081
field min 0.000361289354
field max 0.000905013557
statistic Basic.rack[7].node[4].app 	hops
field count 65814
field mean 4.3345184915064
field stddev 0.76555423174168
field sum 285272
field sqrsum 1275088
field min 3
field max 5
statistic Basic.rack[7].node[5].app 	throughput
field count 65984
field mean 32992.5
field stddev 19048.084418125
field sum 2176977120
field sqrsum 95764497849760
field min 1
field max 65984
statistic Basic.rack[7].node[5].app 	"End-to-End Delay"
field count 65984
field mean 0.0006806055880276
field stddev 0.000201741168706
field sum 44.909079120413
field sqrsum 0.033250845254998
field min 8.992e-006
field max 0.000913160941
statistic Basic.rack[7].node[5].app 	hops
field count 65984
field mean 4.3277309650824
field stddev 0.76968991260785
field sum 285561
field sqrsum 1274921
field min 3
field max 5
statistic Basic.rack[7].node[6].app 	throughput
field count 65673
field mean 32837
field stddev 18958.306451263
field sum 2156504301
field sqrsum 94416790141149
field min 1
field max 65673
statistic Basic.rack[7].node[6].app 	"End-to-End Delay"
field count 65673
field mean 0.00068047735351749
field stddev 0.00020179098824039
field sum 44.688989237554
field sqrsum 0.033083982891692
field min 8.4148535e-005
field max 0.000904556361
statistic Basic.rack[7].node[6].app 	hops
field count 65673
field mean 4.3342164968861
field stddev 0.76794408941324
field sum 284641
field sqrsum 1272425
field min 3
field max 5
statistic Basic.rack[7].node[7].app 	throughput
field count 65730
field mean 32865.5
field stddev 18974.760933935
field sum 2160249315
field sqrsum 94662845066405
field min 1
field max 65730
statistic Basic.rack[7].node[7].app 	"End-to-End Delay"
field count 65730
field mean 0.00067921439422607
field stddev 0.00020210081266457
field sum 44.644762132479
field sqrsum 0.03300804888271
field min 1.6334067e-005
field max 0.000903832322
statistic Basic.rack[7].node[7].app 	hops
field count 65730
field mean 4.3278411684162
field stddev 0.77106253239536
field sum 284469
field sqrsum 1270215
field min 3
field max 5
statistic Basic.rack[7].node[8].app 	throughput
field count 65947
field mean 32974
field stddev 19037.403438144
field sum 2174536378
field sqrsum 95603491858770
field min 1
field max 65947
statistic Basic.rack[7].node[8].app 	"End-to-End Delay"
field count 65947
field mean 0.00068107520250404
field stddev 0.00020157922947901
field sum 44.914866379534
field sqrsum 0.033270063728838
field min 0.000394724995
field max 0.000893470825
statistic Basic.rack[7].node[8].app 	hops
field count 65947
field mean 4.3367401094819
field stddev 0.76563171335281
field sum 285995
field sqrsum 1278943
field min 3
field max 5
statistic Basic.rack[7].node[9].app 	throughput
field count 65908
field mean 32954.5
field stddev 19026.145107895
field sum 2171965186
field sqrsum 95433978307654
field min 1
field max 65908
statistic Basic.rack[7].node[9].app 	"End-to-End Delay"
field count 65908
field mean 0.00067951677832196
field stddev 0.00020194473860636
field sum 44.785591825643
field sqrsum 0.033120359088353
field min 0.000279495964
field max 0.000906676403
statistic Basic.rack[7].node[9].app 	hops
field count 65908
field mean 4.3321296352491
field stddev 0.7680015006571
field sum 285522
field sqrsum 1275792
field min 3
field max 5
statistic Basic.rack[7].eps.queue[0] 	dropsum
field count 0
field mean nan
field stddev nan
field sum 0
field sqrsum 0
field min nan
field max nan
statistic Basic.rack[7].eps.queue[1] 	dropsum
field count 25037
field mean 12519
field stddev 7227.7036809764
field sum 313438203
field sqrsum 5231806005075
field min 1
field max 25037
statistic Basic.rack[7].eps.queue[2] 	dropsum
field count 0
field mean nan
field stddev nan
field sum 0
field sqrsum 0
field min nan
field max nan
statistic Basic.rack[7].eps.queue[3] 	dropsum
field count 0
field mean nan
field stddev nan
field sum 0
field sqrsum 0
field min nan
field max nan
statistic Basic.rack[8].node[0].app 	throughput
field count 145478
field mean 72739.5
field stddev 41996.025567903
field sum 10581996981
field sqrsum 1.0263020318669e+015
field min 1
field max 145478
statistic Basic.rack[8].node[0].app 	"End-to-End Delay"
field count 145478
field mean 0.00040286930857073
field stddev 0.00033089240834161
field sum 58.608621272253
field sqrsum 0.039539860311336
field min 8.496e-007
field max 0.000837232435
statistic Basic.rack[8].node[0].app 	hops
field count 145478
field mean 4.8761118519639
field stddev 0.84650340027733
field sum 709367
field sqrsum 3563197
field min 4
field max 6
statistic Basic.rack[8].node[1].app 	throughput
field count 144589
field mean 72295
field stddev 41739.393373247
field sum 10453061755
field sqrsum 1.0076019817497e+015
field min 1
field max 144589
statistic Basic.rack[8].node[1].app 	"End-to-End Delay"
field count 144589
field mean 0.00040221062648296
field stddev 0.00033099416455401
field sum 58.155232272544
field sqrsum 0.039231299725648
field min 8.496e-007
field max 0.000837228391
statistic Basic.rack[8].node[1].app 	hops
field count 144589
field mean 4.8746585148248
field stddev 0.84634120926483
field sum 704822
field sqrsum 3539334
field min 4
field max 6
statistic Basic.rack[8].node[2].app 	throughput
field count 145351
field mean 72676
field stddev 41959.36382581
field sum 10563529276
field sqrsum 1.0236165503737e+015
field min 1
field max 145351
statistic Basic.rack[8].node[2].app 	"End-to-End Delay"
field count 145351
field mean 0.00040436334366562
field stddev 0.00033044987475291
field sum 58.774616365142
field sqrsum 0.039638101747988
field min 8.496e-007
field max 0.000837232839
statistic Basic.rack[8].node[2].app 	hops
field count 145351
field mean 4.878390929543
field stddev 0.84649233991306
field sum 709079
field sqrsum 3563315
field min 4
field max 6
statistic Basic.rack[8].node[3].app 	throughput
field count 145456
field mean 72728.5
field stddev 41989.674714942
field sum 10578796696
field sqrsum 1.0258364944078e+015
field min 1
field max 145456
statistic Basic.rack[8].node[3].app 	"End-to-End Delay"
field count 145456
field mean 0.00040311371663769
field stddev 0.00033002957836071
field sum 58.635308767252
field sqrsum 0.039479586402123
field min 8.496e-007
field max 0.0008372328
statistic Basic.rack[8].node[3].app 	hops
field count 145456
field mean 4.8763406115939
field stddev 0.84474055057424
field sum 709293
field sqrsum 3562549
field min 4
field max 6
statistic Basic.rack[8].node[4].app 	throughput
field count 144954
field mean 72477.5
field stddev 41844.759797375
field sum 10505903535
field sqrsum 1.0152519959761e+015
field min 1
field max 144954
statistic Basic.rack[8].node[4].app 	"End-to-End Delay"
field count 144954
field mean 0.00040264567894402
field stddev 0.00033064448624684
field sum 58.365101745652
field sqrsum 0.039347555268917
field min 8.496e-007
field max 0.000837232356
statistic Basic.rack[8].node[4].app 	hops
field count 144954
field mean 4.8754777377651
field stddev 0.84604563114702
field sum 706720
field sqrsum 3549354
field min 4
field max 6
statistic Basic.rack[8].node[5].app 	throughput
field count 145292
field mean 72646.5
field stddev 41942.331992868
field sum 10554955278
field sqrsum 1.0223705598192e+015
field min 1
field max 145292
statistic Basic.rack[8].node[5].app 	"End-to-End Delay"
field count 145292
field mean 0.00040415212273881
field stddev 0.00033037500255797
field sum 58.720070216967
field sqrsum 0.039590011125174
field min 8.496e-007
field max 0.000837230821
statistic Basic.rack[8].node[5].app 	hops
field count 145292
field mean 4.8771301929907
field stddev 0.84564779588202
field sum 708608
field sqrsum 3559874
field min 4
field max 6
statistic Basic.rack[8].node[6].app 	throughput
field count 145664
field mean 72832.5
field stddev 42049.719142938
field sum 10609073280
field sqrsum 1.030243569863e+015
field min 1
field max 145664
statistic Basic.rack[8].node[6].app 	"End-to-End Delay"
field count 145664
field mean 0.00040423058646796
field stddev 0.00033007197442641
field sum 58.881844147268
field sqrsum 0.039671463293723
field min 8.496e-007
field max 0.000837233179
statistic Basic.rack[8].node[6].app 	hops
field count 145664
field mean 4.8786659710018
field stddev 0.84559498294453
field sum 710646
field sqrsum 3571158
field min 4
field max 6
statistic Basic.rack[8].node[7].app 	throughput
field count 144871
field mean 72436
field stddev 41820.799761203
field sum 10493875756
field sqrsum 1.0135090143902e+015
field min 1
field max 144871
statistic Basic.rack[8].node[7].app 	"End-to-End Delay"
field count 144871
field mean 0.00040443180475897
field stddev 0.00033056916991411
field sum 58.590439987237
field sqrsum 0.039526648042934
field min 8.496e-007
field max 0.000837230521
statistic Basic.rack[8].node[7].app 	hops
field count 144871
field mean 4.8801623513333
field stddev 0.84638634147677
field sum 706994
field sqrsum 3554026
field min 4
field max 6
statistic Basic.rack[8].node[8].app 	throughput
field count 144657
field mean 72329
field stddev 41759.0232824
field sum 10462896153
field sqrsum 1.0090242668351e+015
field min 1
field max 144657
statistic Basic.rack[8].node[8].app 	"End-to-End Delay"
field count 144657
field mean 0.00040439755877957
field stddev 0.00033043238028136
field sum 58.498937660377
field sqrsum 0.039451173650193
field min 8.496e-007
field max 0.000837233249
statistic Basic.rack[8].node[8].app 	hops
field count 144657
field mean 4.8778351548836
field stddev 0.84587124734197
field sum 705613
field sqrsum 3545365
field min 4
field max 6
statistic Basic.rack[8].node[9].app 	throughput
field count 144993
field mean 72497
field stddev 41856.018127624
field sum 10511557521
field sqrsum 1.0160716769474e+015
field min 1
field max 144993
statistic Basic.rack[8].node[9].app 	"End-to-End Delay"
field count 144993
field mean 0.00040306887644201
field stddev 0.00033075854570106
field sum 58.442165601957
field sqrsum 0.039418519071665
field min 8.496e-007
field max 0.00083723199
statistic Basic.rack[8].node[9].app 	hops
field count 144993
field mean 4.8771733807839
field stddev 0.84607535119874
field sum 707156
field sqrsum 3552714
field min 4
field max 6
statistic Basic.rack[8].eps.queue[0] 	dropsum
field count 0
field mean nan
field stddev nan
field sum 0
field sqrsum 0
field min nan
field max nan
statistic Basic.rack[8].eps.queue[1] 	dropsum
field count 0
field mean nan
field stddev nan
field sum 0
field sqrsum 0
field min nan
field max nan
statistic Basic.rack[8].eps.queue[2] 	dropsum
field count 0
field mean nan
field stddev nan
field sum 0
field sqrsum 0
field min nan
field max nan
statistic Basic.rack[8].eps.queue[3] 	dropsum
field count 0
field mean nan
field stddev nan
field sum 0
field sqrsum 0
field min nan
field max nan
statistic Basic.rack[9].node[0].app 	throughput
field count 149924
field mean 74962.5
field stddev 43279.475216319
field sum 11238677850
field sqrsum 1.1233021048816e+015
field min 1
field max 149924
statistic Basic.rack[9].node[0].app 	"End-to-End Delay"
field count 149924
field mean 0.00028662960362253
field stddev 0.000220930744288
field sum 42.972656693504
field sqrsum 0.019635036220093
field min 8.496e-007
field max 0.000919128864
statistic Basic.rack[9].node[0].app 	hops
field count 149924
field mean 4.6666177529949
field stddev 0.47142338374125
field sum 699638
field sqrsum 3298262
field min 4
field max 5
statistic Basic.rack[9].node[1].app 	throughput
field count 149367
field mean 74684
field stddev 43118.683166349
field sum 11155325028
field sqrsum 1.1108286740799e+015
field min 1
field max 149367
statistic Basic.rack[9].node[1].app 	"End-to-End Delay"
field count 149367
field mean 0.00028668823970145
field stddev 0.00022092674262253
field sum 42.821762299487
field sqrsum 0.01956684482679
field min 8.496e-007
field max 0.000891137367
statistic Basic.rack[9].node[1].app 	hops
field count 149367
field mean 4.6666733615859
field stddev 0.47140373173375
field sum 697047
field sqrsum 3286083
field min 4
field max 5
statistic Basic.rack[9].node[2].app 	throughput
field count 149667
field mean 74834
field stddev 43205.285706728
field sum 11200180278
field sqrsum 1.1175353211717e+015
field min 1
field max 149667
statistic Basic.rack[9].node[2].app 	"End-to-End Delay"
field count 149667
field mean 0.00028638515142702
field stddev 0.00022044851167975
field sum 42.862406458627
field sqrsum 0.019548557128988
field min 8.496e-007
field max 0.000881918145
statistic Basic.rack[9].node[2].app 	hops
field count 149667
field mean 4.6669272451509
field stddev 0.47131388589042
field sum 698485
field sqrsum 3293025
field min 4
field max 5
statistic Basic.rack[9].node[3].app 	throughput
field count 149283
field mean 74642
field stddev 43094.434455043
field sum 11142781686
field sqrsum 1.1089556332147e+015
field min 1
field max 149283
statistic Basic.rack[9].node[3].app 	"End-to-End Delay"
field count 149283
field mean 0.00028646450838986
field stddev 0.00022070741222086
field sum 42.764281205964
field sqrsum 0.019522238018717
field min 8.496e-007
field max 0.000890558666
statistic Basic.rack[9].node[3].app 	hops
field count 149283
field mean 4.6665661863709
field stddev 0.47144161291629
field sum 696639
field sqrsum 3284091
field min 4
field max 5
statistic Basic.rack[9].node[4].app 	throughput
field count 149192
field mean 74596.5
field stddev 43068.165017795
field sum 11129201028
field sqrsum 1.1069288829133e+015
field min 1
field max 149192
statistic Basic.rack[9].node[4].app 	"End-to-End Delay"
field count 149192
field mean 0.0002860263855186
field stddev 0.00022076257635678
field sum 42.67284850829
field sqrsum 0.01947655036943
field min 8.496e-007
field max 0.00088398343
statistic Basic.rack[9].node[4].app 	hops
field count 149192
field mean 4.6656791248861
field stddev 0.47175408773197
field sum 696082
field sqrsum 3280898
field min 4
field max 5
statistic Basic.rack[9].node[5].app 	throughput
field count 149006
field mean 74503.5
field stddev 43014.47144276
field sum 11101468521
field sqrsum 1.1027939794496e+015
field min 1
field max 149006
statistic Basic.rack[9].node[5].app 	"End-to-End Delay"
field count 149006
field mean 0.00028688859436137
field stddev 0.00022022171058264
field sum 42.748121891411
field sqrsum 0.019490333759004
field min 8.496e-007
field max 0.000882218748
statistic Basic.rack[9].node[5].app 	hops
field count 149006
field mean 4.6683287921292
field stddev 0.47081514990257
field sum 695609
field sqrsum 3280361
field min 4
field max 5
statistic Basic.rack[9].node[6].app 	throughput
field count 149968
field mean 74984.5
field stddev 43292.176922242
field sum 11245275496
field sqrsum 1.1242913988146e+015
field min 1
field max 149968
statistic Basic.rack[9].node[6].app 	"End-to-End Delay"
field count 149968
field mean 0.00028733021665361
field stddev 0.00022048409598632
field sum 43.090337931108
field sqrsum 0.019671537384051
field min 8.496e-007
field max 0.000878627696
statistic Basic.rack[9].node[6].app 	hops
field count 149968
field mean 4.6685692947829
field stddev 0.47072908388026
field sum 700136
field sqrsum 3301864
field min 4
field max 5
statistic Basic.rack[9].node[7].app 	throughput
field count 150332
field mean 75166.5
field stddev 43397.254671235
field sum 11299930278
field sqrsum 1.1324978456783e+015
field min 1
field max 150332
statistic Basic.rack[9].node[7].app 	"End-to-End Delay"
field count 150332
field mean 0.00028641531500264
field stddev 0.00022021079249977
field sum 43.057387134976
field sqrsum 0.019622265183988
field min 8.496e-007
field max 0.000876857281
statistic Basic.rack[9].node[7].app 	hops
field count 150332
field mean 4.6672963840034
field stddev 0.47118297583847
field sum 701644
field sqrsum 3308156
field min 4
field max 5
statistic Basic.rack[9].node[8].app 	throughput
field count 149247
field mean 74624
field stddev 43084.042150198
field sum 11137408128
field sqrsum 1.1081535463891e+015
field min 1
field max 149247
statistic Basic.rack[9].node[8].app 	"End-to-End Delay"
field count 149247
field mean 0.00028594372414244
field stddev 0.00022089464235946
field sum 42.676242997087
field sqrsum 0.019485379298423
field min 8.496e-007
field max 0.000878587701
statistic Basic.rack[9].node[8].app 	hops
field count 149247
field mean 4.6653132056256
field stddev 0.47188243877308
field sum 696284
field sqrsum 3281616
field min 4
field max 5
statistic Basic.rack[9].node[9].app 	throughput
field count 148912
field mean 74456.5
field stddev 42987.335980108
field sum 11087466328
field sqrsum 1.1007082197122e+015
field min 1
field max 148912
statistic Basic.rack[9].node[9].app 	"End-to-End Delay"
field count 148912
field mean 0.00028612013596186
field stddev 0.00022116354243008
field sum 42.606721686353
field sqrsum 0.019474371279509
field min 8.496e-007
field max 0.000896903544
statistic Basic.rack[9].node[9].app 	hops
field count 148912
field mean 4.6653392607715
field stddev 0.47187331363701
field sum 694725
field sqrsum 3274285
field min 4
field max 5
statistic Basic.rack[9].eps.queue[0] 	dropsum
field count 221296
field mean 110648.5
field stddev 63882.796922698
field sum 24486070456
field sqrsum 3.6124544604441e+015
field min 1
field max 221296
statistic Basic.rack[9].eps.queue[1] 	dropsum
field count 779846
field mean 389923.5
field stddev 225122.29335009
field sum 304080281781
field sqrsum 1.5809062897705e+017
field min 1
field max 779846
statistic Basic.rack[9].eps.queue[2] 	dropsum
field count 0
field mean nan
field stddev nan
field sum 0
field sqrsum 0
field min nan
field max nan
statistic Basic.rack[9].eps.queue[3] 	dropsum
field count 0
field mean nan
field stddev nan
field sum 0
field sqrsum 0
field min nan
field max nan
statistic Basic.rack[10].node[0].app 	throughput
field count 111338
field mean 55669.5
field stddev 32140.65647276
field sum 6198130791
field sqrsum 4.6006039004917e+014
field min 1
field max 111338
statistic Basic.rack[10].node[0].app 	"End-to-End Delay"
field count 111338
field mean 0.00030405655576762
field stddev 0.00030805674502239
field sum 33.853048806056
field sqrsum 0.020859006726171
field min 8.496e-007
field max 0.000835618069
statistic Basic.rack[10].node[0].app 	hops
field count 111338
field mean 4.7341428802386
field stddev 0.74504708230135
field sum 527090
field sqrsum 2557122
field min 4
field max 6
statistic Basic.rack[10].node[1].app 	throughput
field count 111678
field mean 55839.5
field stddev 32238.806018524
field sum 6236043681
field sqrsum 4.6428800281904e+014
field min 1
field max 111678
statistic Basic.rack[10].node[1].app 	"End-to-End Delay"
field count 111678
field mean 0.00030258496788233
field stddev 0.00030779015083587
field sum 33.792084043163
field sqrsum 0.020804672350498
field min 8.496e-007
field max 0.000835715931
statistic Basic.rack[10].node[1].app 	hops
field count 111678
field mean 4.7306004763696
field stddev 0.74447889434638
field sum 528304
field sqrsum 2561092
field min 4
field max 6
statistic Basic.rack[10].node[2].app 	throughput
field count 111353
field mean 55677
field stddev 32144.986599779
field sum 6199800981
field sqrsum 4.6024635902519e+014
field min 1
field max 111353
statistic Basic.rack[10].node[2].app 	"End-to-End Delay"
field count 111353
field mean 0.00030025246629493
field stddev 0.00030670663476514
field sum 33.434012879339
field sqrsum 0.020513411637805
field min 8.496e-007
field max 0.000835544065
statistic Basic.rack[10].node[2].app 	hops
field count 111353
field mean 4.7249378103868
field stddev 0.74184093356227
field sum 526136
field sqrsum 2547240
field min 4
field max 6
statistic Basic.rack[10].node[3].app 	throughput
field count 112081
field mean 56041
field stddev 32355.142097767
field sum 6281131321
field sqrsum 4.6933241343644e+014
field min 1
field max 112081
statistic Basic.rack[10].node[3].app 	"End-to-End Delay"
field count 112081
field mean 0.00030063003649918
field stddev 0.00030740663306334
field sum 33.694915120864
field sqrsum 0.020721133331416
field min 8.496e-007
field max 0.000835629893
statistic Basic.rack[10].node[3].app 	hops
field count 112081
field mean 4.7259303539405
field stddev 0.74353703929523
field sum 529687
field sqrsum 2565227
field min 4
field max 6
statistic Basic.rack[10].node[4].app 	throughput
field count 111798
field mean 55899.5
field stddev 32273.447034675
field sum 6249452301
field sqrsum 4.657862620489e+014
field min 1
field max 111798
statistic Basic.rack[10].node[4].app 	"End-to-End Delay"
field count 111798
field mean 0.00030352959941754
field stddev 0.00030802943956169
field sum 33.934002155682
field sqrsum 0.020907512198723
field min 8.496e-007
field max 0.000835585542
statistic Basic.rack[10].node[4].app 	hops
field count 111798
field mean 4.7328485303852
field stddev 0.74503516076749
field sum 529123
field sqrsum 2566315
field min 4
field max 6
statistic Basic.rack[10].node[5].app 	throughput
field count 110913
field mean 55457
field stddev 32017.969540556
field sum 6150902241
field sqrsum 4.5481206380477e+014
field min 1
field max 110913
statistic Basic.rack[10].node[5].app 	"End-to-End Delay"
field count 110913
field mean 0.00030239597900239
field stddev 0.00030764162801266
field sum 33.539645219092
field sqrsum 0.020639339447524
field min 8.496e-007
field max 0.000835576994
statistic Basic.rack[10].node[5].app 	hops
field count 110913
field mean 4.7301668875605
field stddev 0.74410087825503
field sum 524637
field sqrsum 2543031
field min 4
field max 6
statistic Basic.rack[10].node[6].app 	throughput
field count 112058
field mean 56029.5
field stddev 32348.502569671
field sum 6278553711
field sqrsum 4.6904354068273e+014
field min 1
field max 112058
statistic Basic.rack[10].node[6].app 	"End-to-End Delay"
field count 112058
field mean 0.00030104236815475
field stddev 0.000306817632182
field sum 33.734205690685
field sqrsum 0.020704141636121
field min 8.496e-007
field max 0.000835664356
statistic Basic.rack[10].node[6].app 	hops
field count 112058
field mean 4.7268914312231
field stddev 0.74207958564814
field sum 529686
field sqrsum 2565476
field min 4
field max 6
statistic Basic.rack[10].node[7].app 	throughput
field count 112075
field mean 56038
field stddev 32353.410046959
field sum 6280458850
field sqrsum 4.6925704389545e+014
field min 1
field max 112075
statistic Basic.rack[10].node[7].app 	"End-to-End Delay"
field count 112075
field mean 0.00030327317157589
field stddev 0.00030733152764749
field sum 33.989340704368
field sqrsum 0.020893743455859
field min 8.496e-007
field max 0.000835581139
statistic Basic.rack[10].node[7].app 	hops
field count 112075
field mean 4.7323221057328
field stddev 0.74340413382895
field sum 530375
field sqrsum 2571843
field min 4
field max 6
statistic Basic.rack[10].node[8].app 	throughput
field count 111833
field mean 55917
field stddev 32283.550664386
field sum 6253365861
field sqrsum 4.6622386067743e+014
field min 1
field max 111833
statistic Basic.rack[10].node[8].app 	"End-to-End Delay"
field count 111833
field mean 0.00030301141222251
field stddev 0.00030692259300947
field sum 33.88667526308
field sqrsum 0.020802789025832
field min 8.496e-007
field max 0.000835678971
statistic Basic.rack[10].node[8].app 	hops
field count 111833
field mean 4.7316445056468
field stddev 0.74234163296536
field sum 529154
field sqrsum 2565396
field min 4
field max 6
statistic Basic.rack[10].node[9].app 	throughput
field count 111360
field mean 55680.5
field stddev 32147.007325722
field sum 6200580480
field sqrsum 4.6033316169536e+014
field min 1
field max 111360
statistic Basic.rack[10].node[9].app 	"End-to-End Delay"
field count 111360
field mean 0.00030246095870811
field stddev 0.00030643080930126
field sum 33.682052361736
field sqrsum 0.020644098230149
field min 8.496e-007
field max 0.000835677573
statistic Basic.rack[10].node[9].app 	hops
field count 111360
field mean 4.7303250718391
field stddev 0.74118951941084
field sum 526769
field sqrsum 2552965
field min 4
field max 6
statistic Basic.rack[10].eps.queue[0] 	dropsum
field count 0
field mean nan
field stddev nan
field sum 0
field sqrsum 0
field min nan
field max nan
statistic Basic.rack[10].eps.queue[1] 	dropsum
field count 2203120
field mean 1101560.5
field stddev 635986.10686758
field sum 2426869968760
field sqrsum 3.5644579860106e+018
field min 1
field max 2203120
statistic Basic.rack[10].eps.queue[2] 	dropsum
field count 0
field mean nan
field stddev nan
field sum 0
field sqrsum 0
field min nan
field max nan
statistic Basic.rack[10].eps.queue[3] 	dropsum
field count 0
field mean nan
field stddev nan
field sum 0
field sqrsum 0
field min nan
field max nan
statistic Basic.rack[11].node[0].app 	throughput
field count 62159
field mean 31080
field stddev 17943.902028266
field sum 1931901720
field sqrsum 80057363309560
field min 1
field max 62159
statistic Basic.rack[11].node[0].app 	"End-to-End Delay"
field count 62159
field mean 0.00063511095359152
field stddev 0.00020819211882801
field sum 39.477861764295
field sqrsum 0.027766996193504
field min 7.3181791e-005
field max 0.000900575763
statistic Basic.rack[11].node[0].app 	hops
field count 62159
field mean 4.2740230698692
field stddev 0.8221408950164
field sum 265669
field sqrsum 1177489
field min 3
field max 5
statistic Basic.rack[11].node[1].app 	throughput
field count 61934
field mean 30967.5
field stddev 17878.95012298
field sum 1917941145
field sqrsum 79191150563335
field min 1
field max 61934
statistic Basic.rack[11].node[1].app 	"End-to-End Delay"
field count 61934
field mean 0.00063623731903702
field stddev 0.00020814763256049
field sum 39.404722117239
field sqrsum 0.027754029043309
field min 8.992e-006
field max 0.000900704517
statistic Basic.rack[11].node[1].app 	hops
field count 61934
field mean 4.2755998320793
field stddev 0.82215368455668
field sum 264805
field sqrsum 1174063
field min 3
field max 5
[...]
field sum 11634302070
field sqrsum 1.1831348366059e+015
field min 1
field max 152540
statistic Basic.rack[13].node[2].app 	"End-to-End Delay"
field count 152540
field mean 0.00026249143513611
field stddev 0.00024037998796502
field sum 40.040443515662
field sqrsum 0.019324364139563
field min 8.496e-007
field max 0.000889723457
statistic Basic.rack[13].node[2].app 	hops
field count 152540
field mean 4.6714042218435
field stddev 0.4697042037887
field sum 712576
field sqrsum 3362384
field min 4
field max 5
statistic Basic.rack[13].node[3].app 	throughput
field count 151715
field mean 75858
field stddev 43796.492382381
field sum 11508796470
field sqrsum 1.1640418738962e+015
field min 1
field max 151715
statistic Basic.rack[13].node[3].app 	"End-to-End Delay"
field count 151715
field mean 0.00026299083529613
field stddev 0.0002407765240488
field sum 39.899654576952
field sqrsum 0.019288609960562
field min 8.496e-007
field max 0.000912030875
statistic Basic.rack[13].node[3].app 	hops
field count 151715
field mean 4.6712190620571
field stddev 0.46977173967137
field sum 708694
field sqrsum 3343946
field min 4
field max 5
statistic Basic.rack[13].node[4].app 	throughput
field count 152895
field mean 76448
field stddev 44137.129041205
field sum 11688516960
field sqrsum 1.1914144299051e+015
field min 1
field max 152895
statistic Basic.rack[13].node[4].app 	"End-to-End Delay"
field count 152895
field mean 0.0002616909618993
field stddev 0.00023980189825969
field sum 40.011239619594
field sqrsum 0.019262741670661
field min 8.496e-007
field max 0.00088943068
statistic Basic.rack[13].node[4].app 	hops
field count 152895
field mean 4.6700284508977
field stddev 0.47020396842432
field sum 714024
field sqrsum 3368316
field min 4
field max 5
statistic Basic.rack[13].node[5].app 	throughput
field count 151408
field mean 75704.5
field stddev 43707.86911606
field sum 11462266936
field sqrsum 1.1569897622529e+015
field min 1
field max 151408
statistic Basic.rack[13].node[5].app 	"End-to-End Delay"
field count 151408
field mean 0.00026255550499934
field stddev 0.00023928120061439
field sum 39.75300390094
field sqrsum 0.019106252438177
field min 8.496e-007
field max 0.000883882747
statistic Basic.rack[13].node[5].app 	hops
field count 151408
field mean 4.6738019127127
field stddev 0.46882229768509
field sum 707651
field sqrsum 3340699
field min 4
field max 5
statistic Basic.rack[13].node[6].app 	throughput
field count 152431
field mean 76216
field stddev 44003.183778752
field sum 11617681096
field sqrsum 1.1806003706566e+015
field min 1
field max 152431
statistic Basic.rack[13].node[6].app 	"End-to-End Delay"
field count 152431
field mean 0.00026216546278568
field stddev 0.00024108270249712
field sum 39.962143657884
field sqrsum 0.019336058015221
field min 8.496e-007
field max 0.000913817822
statistic Basic.rack[13].node[6].app 	hops
field count 152431
field mean 4.6692601898564
field stddev 0.47048107324124
field sum 711740
field sqrsum 3357040
field min 4
field max 5
statistic Basic.rack[13].node[7].app 	throughput
field count 152271
field mean 76136
field stddev 43956.995757217
field sum 11593304856
field sqrsum 1.1768866135869e+015
field min 1
field max 152271
statistic Basic.rack[13].node[7].app 	"End-to-End Delay"
field count 152271
field mean 0.00026267572487949
field stddev 0.0002401370301362
field sum 39.997895303125
field sqrsum 0.019287246479458
field min 8.496e-007
field max 0.000886187198
statistic Basic.rack[13].node[7].app 	hops
field count 152271
field mean 4.6723013574482
field stddev 0.46937585054418
field sum 711456
field sqrsum 3357684
field min 4
field max 5
statistic Basic.rack[13].node[8].app 	throughput
field count 151861
field mean 75931
field stddev 43838.638952033
field sum 11530957591
field sqrsum 1.1674056774704e+015
field min 1
field max 151861
statistic Basic.rack[13].node[8].app 	"End-to-End Delay"
field count 151861
field mean 0.00026253858711435
field stddev 0.00024012607167302
field sum 39.869372377773
field sqrsum 0.019223576824116
field min 8.496e-007
field max 0.000898008187
statistic Basic.rack[13].node[8].app 	hops
field count 151861
field mean 4.6722660854334
field stddev 0.46938880115354
field sum 709535
field sqrsum 3348595
field min 4
field max 5
statistic Basic.rack[13].node[9].app 	throughput
field count 152541
field mean 76271
field stddev 44034.938043558
field sum 11634454611
field sqrsum 1.1831581053626e+015
field min 1
field max 152541
statistic Basic.rack[13].node[9].app 	"End-to-End Delay"
field count 152541
field mean 0.00026170036009525
field stddev 0.00023901102841001
field sum 39.92003462929
field sqrsum 0.019161128922864
field min 8.496e-007
field max 0.000892547736
statistic Basic.rack[13].node[9].app 	hops
field count 152541
field mean 4.6717472679476
field stddev 0.46957887675433
field sum 712633
field sqrsum 3362877
field min 4
field max 5
statistic Basic.rack[13].eps.queue[0] 	dropsum
field count 267154
field mean 133577.5
field stddev 77120.861244975
field sum 35685763435
field sqrsum 6.3557415250638e+015
field min 1
field max 267154
statistic Basic.rack[13].eps.queue[1] 	dropsum
field count 779487
field mean 389744
field stddev 225018.65897677
field sum 303800381328
field sqrsum 1.5787239982671e+017
field min 1
field max 779487
statistic Basic.rack[13].eps.queue[2] 	dropsum
field count 0
field mean nan
field stddev nan
field sum 0
field sqrsum 0
field min nan
field max nan
statistic Basic.rack[13].eps.queue[3] 	dropsum
field count 0
field mean nan
field stddev nan
field sum 0
field sqrsum 0
field min nan
field max nan
statistic Basic.rack[14].node[0].app 	throughput
field count 109714
field mean 54857.5
field stddev 31671.848054174
field sum 6018635755
field sqrsum 4.4022107502796e+014
field min 1
field max 109714
statistic Basic.rack[14].node[0].app 	"End-to-End Delay"
field count 109714
field mean 0.0002827620181648
field stddev 0.00029090486441828
field sum 31.022952060933
field sqrsum 0.018056645391102
field min 8.496e-007
field max 0.000834606193
statistic Basic.rack[14].node[0].app 	hops
field count 109714
field mean 4.6828937054524
field stddev 0.70431736760614
field sum 513779
field sqrsum 2460397
field min 4
field max 6
statistic Basic.rack[14].node[1].app 	throughput
field count 109542
field mean 54771.5
field stddev 31622.195931023
field sum 5999779653
field sqrsum 4.3815390842584e+014
field min 1
field max 109542
statistic Basic.rack[14].node[1].app 	"End-to-End Delay"
field count 109542
field mean 0.00028346032934132
field stddev 0.00029169028439547
field sum 31.050811396707
field sqrsum 0.018121774447101
field min 8.496e-007
field max 0.000834517488
statistic Basic.rack[14].node[1].app 	hops
field count 109542
field mean 4.6846506362856
field stddev 0.70626757195994
field sum 513166
field sqrsum 2458644
field min 4
field max 6
statistic Basic.rack[14].node[2].app 	throughput
field count 109906
field mean 54953.5
field stddev 31727.273680016
field sum 6039719371
field sqrsum 4.4253627803254e+014
field min 1
field max 109906
statistic Basic.rack[14].node[2].app 	"End-to-End Delay"
field count 109906
field mean 0.00028416331113896
field stddev 0.00029137416965287
field sum 31.231252874039
field sqrsum 0.018205590573064
field min 8.496e-007
field max 0.000834556779
statistic Basic.rack[14].node[2].app 	hops
field count 109906
field mean 4.6863592524521
field stddev 0.70551577702791
field sum 515059
field sqrsum 2468457
field min 4
field max 6
statistic Basic.rack[14].node[3].app 	throughput
field count 109548
field mean 54774.5
field stddev 31623.92798183
field sum 6000436926
field sqrsum 4.3822590972527e+014
field min 1
field max 109548
statistic Basic.rack[14].node[3].app 	"End-to-End Delay"
field count 109548
field mean 0.00028306058146209
field stddev 0.00029137084531969
field sum 31.008720578009
field sqrsum 0.018077554795276
field min 8.496e-007
field max 0.000834557027
statistic Basic.rack[14].node[3].app 	hops
field count 109548
field mean 4.6837002957608
field stddev 0.70557348709147
field sum 513090
field sqrsum 2457696
field min 4
field max 6
statistic Basic.rack[14].node[4].app 	throughput
field count 109903
field mean 54952
field stddev 31726.407654613
field sum 6039389656
field sqrsum 4.4250004070546e+014
field min 1
field max 109903
statistic Basic.rack[14].node[4].app 	"End-to-End Delay"
field count 109903
field mean 0.00028366732495255
field stddev 0.00029122124387114
field sum 31.17589001426
field sqrsum 0.018164349378701
field min 8.496e-007
field max 0.000834620328
statistic Basic.rack[14].node[4].app 	hops
field count 109903
field mean 4.6851041372847
field stddev 0.70510351746936
field sum 514907
field sqrsum 2467033
field min 4
field max 6
statistic Basic.rack[14].node[5].app 	throughput
field count 109481
field mean 54741
field stddev 31604.586747812
field sum 5993099421
field sqrsum 4.3742234284014e+014
field min 1
field max 109481
statistic Basic.rack[14].node[5].app 	"End-to-End Delay"
field count 109481
field mean 0.00028325553101236
field stddev 0.0002908461958885
field sum 31.011098790764
field sqrsum 0.018045143733139
field min 8.496e-007
field max 0.000834577859
statistic Basic.rack[14].node[5].app 	hops
field count 109481
field mean 4.6841552415488
field stddev 0.70420344032301
field sum 512826
field sqrsum 2456448
field min 4
field max 6
statistic Basic.rack[14].node[6].app 	throughput
field count 109926
field mean 54963.5
field stddev 31733.047182708
field sum 6041917701
field sqrsum 4.4277791077265e+014
field min 1
field max 109926
statistic Basic.rack[14].node[6].app 	"End-to-End Delay"
field count 109926
field mean 0.00028362130573929
field stddev 0.00029041028540129
field sum 31.177355654697
field sqrsum 0.018113431685598
field min 8.496e-007
field max 0.000834588732
statistic Basic.rack[14].node[6].app 	hops
field count 109926
field mean 4.6849607918054
field stddev 0.70312261821645
field sum 514999
field sqrsum 2467095
field min 4
field max 6
statistic Basic.rack[14].node[7].app 	throughput
field count 110027
field mean 55014
field stddev 31762.203371303
field sum 6053025378
field sqrsum 4.4399949985193e+014
field min 1
field max 110027
statistic Basic.rack[14].node[7].app 	"End-to-End Delay"
field count 110027
field mean 0.00028348717747917
field stddev 0.0002906040561974
field sum 31.1912436765
field sqrsum 0.018134092273192
field min 8.496e-007
field max 0.00083465771
statistic Basic.rack[14].node[7].app 	hops
field count 110027
field mean 4.6847682841484
field stddev 0.70370208091544
field sum 515451
field sqrsum 2469253
field min 4
field max 6
statistic Basic.rack[14].node[8].app 	throughput
field count 109883
field mean 54942
field stddev 31720.634151921
field sum 6037191786
field sqrsum 4.4225850907795e+014
field min 1
field max 109883
statistic Basic.rack[14].node[8].app 	"End-to-End Delay"
field count 109883
field mean 0.00028547921061059
field stddev 0.000292366694043
field sum 31.369312099523
field sqrsum 0.018347811234502
field min 8.496e-007
field max 0.000834601607
statistic Basic.rack[14].node[8].app 	hops
field count 109883
field mean 4.6895516139894
field stddev 0.70786362692716
field sum 515302
field sqrsum 2471594
field min 4
field max 6
statistic Basic.rack[14].node[9].app 	throughput
field count 110239
field mean 55120
field stddev 31823.402499838
field sum 6076373680
field sqrsum 4.4657093086424e+014
field min 1
field max 110239
statistic Basic.rack[14].node[9].app 	"End-to-End Delay"
field count 110239
field mean 0.00028523136412435
field stddev 0.0002912285409203
field sum 31.443620349704
field sqrsum 0.018318439407482
field min 8.496e-007
field max 0.000834639191
statistic Basic.rack[14].node[9].app 	hops
field count 110239
field mean 4.6889485572257
field stddev 0.70517371023294
field sum 516905
field sqrsum 2478559
field min 4
field max 6
statistic Basic.rack[14].eps.queue[0] 	dropsum
field count 0
field mean nan
field stddev nan
field sum 0
field sqrsum 0
field min nan
field max nan
statistic Basic.rack[14].eps.queue[1] 	dropsum
field count 2204298
field mean 1102149.5
field stddev 636326.16617613
field sum 2429465938551
field sqrsum 3.5701787494369e+018
field min 1
field max 2204298
statistic Basic.rack[14].eps.queue[2] 	dropsum
field count 0
field mean nan
field stddev nan
field sum 0
field sqrsum 0
field min nan
field max nan
statistic Basic.rack[14].eps.queue[3] 	dropsum
field count 0
field mean nan
field stddev nan
field sum 0
field sqrsum 0
field min nan
field max nan
statistic Basic.rack[15].node[0].app 	throughput
field count 54386
field mean 27193.5
field stddev 15700.030206977
field sum 1478945691
field sqrsum 53623119882381
field min 1
field max 54386
statistic Basic.rack[15].node[0].app 	"End-to-End Delay"
field count 54386
field mean 0.00051521538655667
field stddev 0.00017680501026002
field sum 28.020504013271
field sqrsum 0.016136670540461
field min 0.000387914935
field max 0.000917044494
statistic Basic.rack[15].node[0].app 	hops
field count 54386
field mean 4.1305299157872
field stddev 0.93375670967469
field sum 224643
field sqrsum 975313
field min 3
field max 5
statistic Basic.rack[15].node[1].app 	throughput
field count 54240
field mean 27120.5
field stddev 15657.883637325
field sum 1471015920
field sqrsum 53192426005840
field min 1
field max 54240
statistic Basic.rack[15].node[1].app 	"End-to-End Delay"
field count 54240
field mean 0.00051554632204585
field stddev 0.000177053899794
field sum 27.963232507767
field sqrsum 0.016116630369175
field min 0.000113575964
field max 0.000893440502
statistic Basic.rack[15].node[1].app 	hops
field count 54240
field mean 4.1282264011799
field stddev 0.93391578938811
field sum 223915
field sqrsum 971679
field min 3
field max 5
statistic Basic.rack[15].node[2].app 	throughput
field count 53872
field mean 26936.5
field stddev 15551.651187789
field sum 1451123128
field sqrsum 52117087142120
field min 1
field max 53872
statistic Basic.rack[15].node[2].app 	"End-to-End Delay"
field count 53872
field mean 0.00051350114550689
field stddev 0.00017576792426656
field sum 27.663333710747
field sqrsum 0.015869463789008
field min 4.3594849e-005
field max 0.000890104341
statistic Basic.rack[15].node[2].app 	hops
field count 53872
field mean 4.1178905553906
field stddev 0.93562419978134
field sum 221839
field sqrsum 960667
field min 3
field max 5
statistic Basic.rack[15].node[3].app 	throughput
field count 54234
field mean 27117.5
field stddev 15656.151586517
field sum 1470690495
field sqrsum 53174775767385
field min 1
field max 54234
statistic Basic.rack[15].node[3].app 	"End-to-End Delay"
field count 54234
field mean 0.0005152967367222
field stddev 0.00017684132867112
field sum 27.946603219392
field sqrsum 0.016096814215173
field min 0.000281536473
field max 0.000901850043
statistic Basic.rack[15].node[3].app 	hops
field count 54234
field mean 4.1295497289523
field stddev 0.93367717021567
field sum 223962
field sqrsum 972140
field min 3
field max 5
statistic Basic.rack[15].node[4].app 	throughput
field count 53996
field mean 26998.5
field stddev 15587.446904481
field sum 1457811006
field sqrsum 52477794656986
field min 1
field max 53996
statistic Basic.rack[15].node[4].app 	"End-to-End Delay"
field count 53996
field mean 0.00051540121714934
field stddev 0.00017690365158483
field sum 27.829604121196
field sqrsum 0.016033180067318
field min 9.3606832e-005
field max 0.000894620736
statistic Basic.rack[15].node[4].app 	hops
field count 53996
field mean 4.1288613971405
field stddev 0.93283452246095
field sum 222942
field sqrsum 967482
field min 3
field max 5
statistic Basic.rack[15].node[5].app 	throughput
field count 54049
field mean 27025
field stddev 15602.746686615
field sum 1460674225
field sqrsum 52632474349425
field min 1
field max 54049
statistic Basic.rack[15].node[5].app 	"End-to-End Delay"
field count 54049
field mean 0.00051393120444019
field stddev 0.00017600392881792
field sum 27.777467668788
field sqrsum 0.015949973009505
field min 2.2511686e-005
field max 0.000884794509
statistic Basic.rack[15].node[5].app 	hops
field count 54049
field mean 4.1208903032434
field stddev 0.93466343876154
field sum 222730
field sqrsum 965062
field min 3
field max 5
statistic Basic.rack[15].node[6].app 	throughput
field count 54181
field mean 27091
field stddev 15640.851804383
field sum 1467817471
field sqrsum 53019034869991
field min 1
field max 54181
statistic Basic.rack[15].node[6].app 	"End-to-End Delay"
field count 54181
field mean 0.00051587741843449
field stddev 0.00017723271929355
field sum 27.950754408199
field sqrsum 0.016121034672582
field min 8.2312988e-005
field max 0.000911812068
statistic Basic.rack[15].node[6].app 	hops
field count 54181
field mean 4.133903028737
field stddev 0.93227211388345
field sum 223979
field sqrsum 972997
field min 3
field max 5
statistic Basic.rack[15].node[7].app 	throughput
field count 53958
field mean 26979.5
field stddev 15576.477249365
field sum 1455759861
field sqrsum 52367078973179
field min 1
field max 53958
statistic Basic.rack[15].node[7].app 	"End-to-End Delay"
field count 53958
field mean 0.00051470520468629
field stddev 0.00017651449768365
field sum 27.772463434463
field sqrsum 0.015975789576054
field min 1.5866947e-005
field max 0.000891328111
statistic Basic.rack[15].node[7].app 	hops
field count 53958
field mean 4.1266911301383
field stddev 0.93483527827364
field sum 222668
field sqrsum 966036
field min 3
field max 5
statistic Basic.rack[15].node[8].app 	throughput
field count 54434
field mean 27217.5
field stddev 15713.886613438
field sum 1481557395
field sqrsum 53765224012085
field min 1
field max 54434
statistic Basic.rack[15].node[8].app 	"End-to-End Delay"
field count 54434
field mean 0.00051481803659936
field stddev 0.00017649610941559
field sum 28.02360500425
field sqrsum 0.016122692974806
field min 0.000305047014
field max 0.000899988323
statistic Basic.rack[15].node[8].app 	hops
field count 54434
field mean 4.1205129147224
field stddev 0.93365061744456
field sum 224296
field sqrsum 971664
field min 3
field max 5
statistic Basic.rack[15].node[9].app 	throughput
field count 53889
field mean 26945
field stddev 15556.558665078
field sum 1452039105
field sqrsum 52166440899265
field min 1
field max 53889
statistic Basic.rack[15].node[9].app 	"End-to-End Delay"
field count 53889
field mean 0.00051585843983401
field stddev 0.00017717480812185
field sum 27.799095464215
field sqrsum 0.016031991514935
field min 0.00022123218
field max 0.000885433253
statistic Basic.rack[15].node[9].app 	hops
field count 53889
field mean 4.125981183544
field stddev 0.93332615760301
field sum 222345
field sqrsum 964333
field min 3
field max 5
statistic Basic.rack[15].eps.queue[0] 	dropsum
field count 0
field mean nan
field stddev nan
field sum 0
field sqrsum 0
field min nan
field max nan
statistic Basic.rack[15].eps.queue[1] 	dropsum
field count 188792
field mean 94396.5
field stddev 54499.7003478
field sum 17821304028
field sqrsum 2.2430190271375e+015
field min 1
field max 188792
statistic Basic.rack[15].eps.queue[2] 	dropsum
field count 0
field mean nan
field stddev nan
field sum 0
field sqrsum 0
field min nan
field max nan
statistic Basic.rack[15].eps.queue[3] 	dropsum
field count 0
field mean nan
field stddev nan
field sum 0
field sqrsum 0
field min nan
field max nan
