version 2
run Basic-37-20180510-17:01:54-19248
attr configname Basic
attr datetime 20180510-17:01:54
attr experiment Basic
attr inifile omnetpp.ini
attr iterationvars "$0=exponential(0.1 ms), $1=5, $2=3"
attr iterationvarsf exponential(0.1_ms),5,3-
attr measurement "$0=exponential(0.1 ms), $1=5, $2=3"
attr network Networks.Basic
attr processid 19248
attr repetition 0
attr replication #0
attr resultdir results
attr runnumber 37
attr seedset 37
param **.frameCapacity 50
param **.packetLength "1024 bytes"
param **.pattern 5
param **.sendIaTime "exponential(0.1 ms)"
param **.tp 3

statistic Basic.rack[0].node[0].app 	throughput
field count 99862
field mean 49931.5
field stddev 28827.820628113
field sum 4986259453
field sqrsum 3.3196022308348e+014
field min 1
field max 99862
statistic Basic.rack[0].node[0].app 	"End-to-End Delay"
field count 99862
field mean 1.4427893272199e-005
field stddev 8.2783212398516e-006
field sum 1.4407982779483
field sqrsum 2.7631218282269e-005
field min 8.992e-006
field max 0.000122586036
statistic Basic.rack[0].node[0].app 	hops
field count 99862
field mean 3.9957941959905
field stddev 0.99999616247006
field sum 399028
field sqrsum 1694294
field min 3
field max 5
statistic Basic.rack[0].node[1].app 	throughput
field count 99643
field mean 49822
field stddev 28764.600773636
field sum 4964413546
field sqrsum 3.2978102744723e+014
field min 1
field max 99643
statistic Basic.rack[0].node[1].app 	"End-to-End Delay"
field count 99643
field mean 1.4415184171094e-005
field stddev 8.2689804159991e-006
field sum 1.4363721963603
field sqrsum 2.7518694839501e-005
field min 8.992e-006
field max 0.000143895138
statistic Basic.rack[0].node[1].app 	hops
field count 99643
field mean 4.000210752386
field stddev 1.0000049957433
field sum 398593
field sqrsum 1694099
field min 3
field max 5
statistic Basic.rack[0].node[2].app 	throughput
field count 100809
field mean 50405
field stddev 29101.195980578
field sum 5081277645
field sqrsum 3.4149403916908e+014
field min 1
field max 100809
statistic Basic.rack[0].node[2].app 	"End-to-End Delay"
field count 100809
field mean 1.4402382655609e-005
field stddev 8.2178308011763e-006
field sum 1.4518897931293
field sqrsum 2.7718513138504e-005
field min 8.992e-006
field max 0.000111809239
statistic Basic.rack[0].node[2].app 	hops
field count 100809
field mean 4.003382634487
field stddev 0.99999923875874
field sum 403577
field sqrsum 1716481
field min 3
field max 5
statistic Basic.rack[0].node[3].app 	throughput
field count 100106
field mean 50053.5
field stddev 28898.257360955
field sum 5010655671
field sqrsum 3.3439946795264e+014
field min 1
field max 100106
statistic Basic.rack[0].node[3].app 	"End-to-End Delay"
field count 100106
field mean 1.4441847498145e-005
field stddev 8.2639507940313e-006
field sum 1.4457155856493
field sqrsum 2.7715263038942e-005
field min 8.992e-006
field max 0.000146836767
statistic Basic.rack[0].node[3].app 	hops
field count 100106
field mean 3.9954048708369
field stddev 0.99999443702856
field sum 399964
field sqrsum 1698122
field min 3
field max 5
statistic Basic.rack[0].node[4].app 	throughput
field count 99601
field mean 49801
field stddev 28752.476417983
field sum 4960229401
field sqrsum 3.293641924558e+014
field min 1
field max 99601
statistic Basic.rack[0].node[4].app 	"End-to-End Delay"
field count 99601
field mean 1.440238377621e-005
field stddev 8.1662537204358e-006
field sum 1.4344918264943
field sqrsum 2.7302196711731e-005
field min 8.992e-006
field max 0.000113847302
statistic Basic.rack[0].node[4].app 	hops
field count 99601
field mean 4.0053111916547
field stddev 0.99999091551905
field sum 398933
field sqrsum 1697449
field min 3
field max 5
statistic Basic.rack[0].node[5].app 	throughput
field count 100043
field mean 50022
field stddev 28880.070827475
field sum 5004350946
field sqrsum 3.3376852257743e+014
field min 1
field max 100043
statistic Basic.rack[0].node[5].app 	"End-to-End Delay"
field count 100043
field mean 1.4372081309281e-005
field stddev 8.2004322633364e-006
field sum 1.4378261304244
field sqrsum 2.7392087363375e-005
field min 8.992e-006
field max 0.000110732511
statistic Basic.rack[0].node[5].app 	hops
field count 100043
field mean 3.9970912507622
field stddev 1.0000007674472
field sum 399881
field sqrsum 1698403
field min 3
field max 5
statistic Basic.rack[0].node[6].app 	throughput
field count 100445
field mean 50223
field stddev 28996.118231584
field sum 5044649235
field sqrsum 3.378082098228e+014
field min 1
field max 100445
statistic Basic.rack[0].node[6].app 	"End-to-End Delay"
field count 100445
field mean 1.4415430192536e-005
field stddev 8.223145876439e-006
field sum 1.4479578856893
field sqrsum 2.7664971970285e-005
field min 8.992e-006
field max 0.00011406579
statistic Basic.rack[0].node[6].app 	hops
field count 100445
field mean 4.0043307282592
field stddev 0.99999560019146
field sum 402215
field sqrsum 1711045
field min 3
field max 5
statistic Basic.rack[0].node[7].app 	throughput
field count 100250
field mean 50125.5
field stddev 28939.826580337
field sum 5025081375
field sqrsum 3.3584461358962e+014
field min 1
field max 100250
statistic Basic.rack[0].node[7].app 	"End-to-End Delay"
field count 100250
field mean 1.4370834970766e-005
field stddev 8.1826046630661e-006
field sum 1.4406762058193
field sqrsum 2.7415893707091e-005
field min 8.992e-006
field max 0.000118230537
statistic Basic.rack[0].node[7].app 	hops
field count 100250
field mean 4.001216957606
field stddev 1.0000042470716
field sum 401122
field sqrsum 1705226
field min 3
field max 5
statistic Basic.rack[0].node[8].app 	throughput
field count 99826
field mean 49913.5
field stddev 28817.428323268
field sum 4982665051
field sqrsum 3.316013418091e+014
field min 1
field max 99826
statistic Basic.rack[0].node[8].app 	"End-to-End Delay"
field count 99826
field mean 1.4406645317335e-005
field stddev 8.1852689705802e-006
field sum 1.4381577754483
field sqrsum 2.7407167033405e-005
field min 8.992e-006
field max 0.000140648139
statistic Basic.rack[0].node[8].app 	hops
field count 99826
field mean 4.0035261354757
field stddev 0.99999879188664
field sum 399656
field sqrsum 1699858
field min 3
field max 5
statistic Basic.rack[0].node[9].app 	throughput
field count 99969
field mean 49985
field stddev 28858.708867515
field sum 4996950465
field sqrsum 3.3302842634054e+014
field min 1
field max 99969
statistic Basic.rack[0].node[9].app 	"End-to-End Delay"
field count 99969
field mean 1.4375498656117e-005
field stddev 8.1921365137358e-006
field sum 1.4371042251533
field sqrsum 2.7368052368138e-005
field min 8.992e-006
field max 0.000126946531
statistic Basic.rack[0].node[9].app 	hops
field count 99969
field mean 4.0037111504566
field stddev 0.999998115211
field sum 400247
field sqrsum 1702441
field min 3
field max 5
statistic Basic.rack[0].eps.queue[0] 	dropsum
field count 0
field mean nan
field stddev nan
field sum 0
field sqrsum 0
field min nan
field max nan
statistic Basic.rack[0].eps.queue[1] 	dropsum
field count 0
field mean nan
field stddev nan
field sum 0
field sqrsum 0
field min nan
field max nan
statistic Basic.rack[0].eps.queue[2] 	dropsum
field count 0
field mean nan
field stddev nan
field sum 0
field sqrsum 0
field min nan
field max nan
statistic Basic.rack[0].eps.queue[3] 	dropsum
field count 0
field mean nan
field stddev nan
field sum 0
field sqrsum 0
field min nan
field max nan
statistic Basic.rack[1].node[0].app 	throughput
field count 100546
field mean 50273.5
field stddev 29025.274420178
field sum 5054799331
field sqrsum 3.3882825395626e+014
field min 1
field max 100546
statistic Basic.rack[1].node[0].app 	"End-to-End Delay"
field count 100546
field mean 1.4353044455257e-005
field stddev 8.0960362016757e-006
field sum 1.4431412077983
field sqrsum 2.7303772590815e-005
field min 8.992e-006
field max 0.000103476993
statistic Basic.rack[1].node[0].app 	hops
field count 100546
field mean 3.9888807113162
field stddev 0.99994315137657
field sum 401066
field sqrsum 1700338
field min 3
field max 5
statistic Basic.rack[1].node[1].app 	throughput
field count 99819
field mean 49910
field stddev 28815.407597325
field sum 4981966290
field sqrsum 3.3153158938977e+014
field min 1
field max 99819
statistic Basic.rack[1].node[1].app 	"End-to-End Delay"
field count 99819
field mean 1.4344199075029e-005
field stddev 8.1598581645488e-006
field sum 1.4318236074703
field sqrsum 2.7184573234518e-005
field min 8.992e-006
field max 0.00010453366
statistic Basic.rack[1].node[1].app 	hops
field count 99819
field mean 4.0006912511646
field stddev 1.0000047701887
field sum 399345
field sqrsum 1697475
field min 3
field max 5
statistic Basic.rack[1].node[2].app 	throughput
field count 100164
field mean 50082.5
field stddev 28915.000518762
field sum 5016463530
field sqrsum 3.3498104083379e+014
field min 1
field max 100164
statistic Basic.rack[1].node[2].app 	"End-to-End Delay"
field count 100164
field mean 1.4391412381977e-005
field stddev 8.144217371478e-006
field sum 1.4415014298283
field sqrsum 2.7388880694342e-005
field min 8.992e-006
field max 9.8699574e-005
statistic Basic.rack[1].node[2].app 	hops
field count 100164
field mean 4.0050716824408
field stddev 0.99999213072251
field sum 401164
field sqrsum 1706852
field min 3
field max 5
statistic Basic.rack[1].node[3].app 	throughput
field count 100232
field mean 50116.5
field stddev 28934.630427915
field sum 5023277028
field sqrsum 3.3566374313934e+014
field min 1
field max 100232
statistic Basic.rack[1].node[3].app 	"End-to-End Delay"
field count 100232
field mean 1.4356521559226e-005
field stddev 8.1810491448793e-006
field sum 1.4389828689243
field sqrsum 2.7367205821702e-005
field min 8.992e-006
field max 0.000118766595
statistic Basic.rack[1].node[3].app 	hops
field count 100232
field mean 3.9989823609227
field stddev 1.0000044706668
field sum 400826
field sqrsum 1703128
field min 3
field max 5
statistic Basic.rack[1].node[4].app 	throughput
field count 100113
field mean 50057
field stddev 28900.278086897
field sum 5011356441
field sqrsum 3.3446962203737e+014
field min 1
field max 100113
statistic Basic.rack[1].node[4].app 	"End-to-End Delay"
field count 100113
field mean 1.4423504628183e-005
field stddev 8.2421636210821e-006
field sum 1.4439803188413
field sqrsum 2.7628191452732e-005
field min 8.992e-006
field max 0.000100599212
statistic Basic.rack[1].node[4].app 	hops
field count 100113
field mean 3.999510553075
field stddev 1.000004874614
field sum 400403
field sqrsum 1701529
field min 3
field max 5
statistic Basic.rack[1].node[5].app 	throughput
field count 100059
field mean 50030
field stddev 28884.689629629
field sum 5005951770
field sqrsum 3.3392868742021e+014
field min 1
field max 100059
statistic Basic.rack[1].node[5].app 	"End-to-End Delay"
field count 100059
field mean 1.4370146803389e-005
field stddev 8.1544946216465e-006
field sum 1.4378625190003
field sqrsum 2.7315730489959e-005
field min 8.992e-006
field max 0.000116848458
statistic Basic.rack[1].node[5].app 	hops
field count 100059
field mean 4.0049270930151
field stddev 0.99999285883208
field sum 400729
field sqrsum 1704947
field min 3
field max 5
statistic Basic.rack[1].node[6].app 	throughput
field count 100127
field mean 50064
field stddev 28904.319538782
field sum 5012758128
field sqrsum 3.3460995964088e+014
field min 1
field max 100127
statistic Basic.rack[1].node[6].app 	"End-to-End Delay"
field count 100127
field mean 1.4355296749961e-005
field stddev 8.1158864796074e-006
field sum 1.4373527976833
field sqrsum 2.72286865994e-005
field min 8.992e-006
field max 0.000110102367
statistic Basic.rack[1].node[6].app 	hops
field count 100127
field mean 3.9995106215107
field stddev 1.0000048739492
field sum 400459
field sqrsum 1701767
field min 3
field max 5
statistic Basic.rack[1].node[7].app 	throughput
field count 100085
field mean 50043
field stddev 28892.195183129
field sum 5008553655
field sqrsum 3.3418906455834e+014
field min 1
field max 100085
statistic Basic.rack[1].node[7].app 	"End-to-End Delay"
field count 100085
field mean 1.4341798463719e-005
field stddev 8.0978611707567e-006
field sum 1.4353988992413
field sqrsum 2.7149245611914e-005
field min 8.992e-006
field max 9.3111929e-005
statistic Basic.rack[1].node[7].app 	hops
field count 100085
field mean 4.0011290403157
field stddev 1.0000043584216
field sum 400453
field sqrsum 1702349
field min 3
field max 5
statistic Basic.rack[1].node[8].app 	throughput
field count 100022
field mean 50011.5
field stddev 28874.008649649
field sum 5002250253
field sqrsum 3.335583839538e+014
field min 1
field max 100022
statistic Basic.rack[1].node[8].app 	"End-to-End Delay"
field count 100022
field mean 1.4381840649411e-005
field stddev 8.1657496971737e-006
field sum 1.4385004654353
field sqrsum 2.7357631548514e-005
field min 8.992e-006
field max 0.00011000472
statistic Basic.rack[1].node[8].app 	hops
field count 100022
field mean 4.0019595688948
field stddev 1.0000030789712
field sum 400284
field sqrsum 1701942
field min 3
field max 5
statistic Basic.rack[1].node[9].app 	throughput
field count 99850
field mean 49925.5
field stddev 28824.356526498
field sum 4985061175
field sqrsum 3.3184056723622e+014
field min 1
field max 99850
statistic Basic.rack[1].node[9].app 	"End-to-End Delay"
field count 99850
field mean 1.4338566905622e-005
field stddev 8.0903198287699e-006
field sum 1.4317059055263
field sqrsum 2.7064054964227e-005
field min 8.992e-006
field max 9.4195069e-005
statistic Basic.rack[1].node[9].app 	hops
field count 99850
field mean 3.9992188282424
field stddev 1.0000047024326
field sum 399322
field sqrsum 1696826
field min 3
field max 5
statistic Basic.rack[1].eps.queue[0] 	dropsum
field count 0
field mean nan
field stddev nan
field sum 0
field sqrsum 0
field min nan
field max nan
statistic Basic.rack[1].eps.queue[1] 	dropsum
field count 0
field mean nan
field stddev nan
field sum 0
field sqrsum 0
field min nan
field max nan
statistic Basic.rack[1].eps.queue[2] 	dropsum
field count 0
field mean nan
field stddev nan
field sum 0
field sqrsum 0
field min nan
field max nan
statistic Basic.rack[1].eps.queue[3] 	dropsum
field count 0
field mean nan
field stddev nan
field sum 0
field sqrsum 0
field min nan
field max nan
statistic Basic.rack[2].node[0].app 	throughput
field count 99946
field mean 49973.5
field stddev 28852.069339419
field sum 4994651431
field sqrsum 3.3279861949896e+014
field min 1
field max 99946
statistic Basic.rack[2].node[0].app 	"End-to-End Delay"
field count 99946
field mean 8.887834739371e-006
field stddev 6.0057825306908e-006
field sum 0.88830353086118
field sqrsum 1.150005354298e-005
field min 8.496e-007
field max 6.542896e-005
statistic Basic.rack[2].node[0].app 	hops
field count 99946
field mean 4.249454705541
field stddev 0.82973767441831
field sum 424716
field sqrsum 1873620
field min 3
field max 5
statistic Basic.rack[2].node[1].app 	throughput
field count 99710
field mean 49855.5
field stddev 28783.942007654
field sum 4971091905
field sqrsum 3.3044670626234e+014
field min 1
field max 99710
statistic Basic.rack[2].node[1].app 	"End-to-End Delay"
field count 99710
field mean 8.8294318553921e-006
field stddev 5.9630406616631e-006
field sum 0.88038265030115
field sqrsum 1.1318716675274e-005
field min 8.496e-007
field max 5.9940808e-005
statistic Basic.rack[2].node[1].app 	hops
field count 99710
field mean 4.2520208604954
field stddev 0.82709756436272
field sum 423969
field sqrsum 1870935
field min 3
field max 5
statistic Basic.rack[2].node[2].app 	throughput
field count 99365
field mean 49683
field stddev 28684.349086218
field sum 4936751295
field sqrsum 3.2702850720222e+014
field min 1
field max 99365
statistic Basic.rack[2].node[2].app 	"End-to-End Delay"
field count 99365
field mean 8.8296263962275e-006
field stddev 5.9412887857163e-006
field sum 0.87735582686115
field sqrsum 1.1254165302956e-005
field min 8.496e-007
field max 6.2405316e-005
statistic Basic.rack[2].node[2].app 	hops
field count 99365
field mean 4.2481155336386
field stddev 0.82885397350832
field sum 422114
field sqrsum 1861452
field min 3
field max 5
statistic Basic.rack[2].node[3].app 	throughput
field count 100154
field mean 50077.5
field stddev 28912.113767416
field sum 5015461935
field sqrsum 3.348807215793e+014
field min 1
field max 100154
statistic Basic.rack[2].node[3].app 	"End-to-End Delay"
field count 100154
field mean 8.8438790820853e-006
field stddev 5.9608952551349e-006
field sum 0.88574986558717
field sqrsum 1.1392128370148e-005
field min 8.496e-007
field max 6.1227447e-005
statistic Basic.rack[2].node[3].app 	hops
field count 100154
field mean 4.2515226551111
field stddev 0.82834721253894
field sum 425807
field sqrsum 1879049
field min 3
field max 5
statistic Basic.rack[2].node[4].app 	throughput
field count 99946
field mean 49973.5
field stddev 28852.069339419
field sum 4994651431
field sqrsum 3.3279861949896e+014
field min 1
field max 99946
statistic Basic.rack[2].node[4].app 	"End-to-End Delay"
field count 99946
field mean 8.8600263243168e-006
field stddev 5.9512091367539e-006
field sum 0.88552419101017
field sqrsum 1.1385508733147e-005
field min 8.496e-007
field max 6.0077631e-005
statistic Basic.rack[2].node[4].app 	hops
field count 99946
field mean 4.2490544894243
field stddev 0.82972525614982
field sum 424676
field sqrsum 1873278
field min 3
field max 5
statistic Basic.rack[2].node[5].app 	throughput
field count 100023
field mean 50012
field stddev 28874.297324784
field sum 5002350276
field sqrsum 3.3356838855432e+014
field min 1
field max 100023
statistic Basic.rack[2].node[5].app 	"End-to-End Delay"
field count 100023
field mean 8.85519844262e-006
field stddev 5.9790592558157e-006
field sum 0.88572351382618
field sqrsum 1.1418958919972e-005
field min 8.496e-007
field max 6.5447317e-005
statistic Basic.rack[2].node[5].app 	hops
field count 100023
field mean 4.250832308569
field stddev 0.82843689826706
field sum 425181
field sqrsum 1876019
field min 3
field max 5
statistic Basic.rack[2].node[6].app 	throughput
field count 99656
field mean 49828.5
field stddev 28768.353550386
field sum 4965708996
field sqrsum 3.2991011903992e+014
field min 1
field max 99656
statistic Basic.rack[2].node[6].app 	"End-to-End Delay"
field count 99656
field mean 8.9064972759407e-006
field stddev 6.0017474115008e-006
field sum 0.88758589253115
field sqrsum 1.1494951297801e-005
field min 8.496e-007
field max 6.1544292e-005
statistic Basic.rack[2].node[6].app 	hops
field count 99656
field mean 4.2517961788553
field stddev 0.83007464565226
field sum 423717
field sqrsum 1870223
field min 3
field max 5
statistic Basic.rack[2].node[7].app 	throughput
field count 99783
field mean 49892
field stddev 28805.01529248
field sum 4978373436
field sqrsum 3.311730171674e+014
field min 1
field max 99783
statistic Basic.rack[2].node[7].app 	"End-to-End Delay"
field count 99783
field mean 8.8670133594617e-006
field stddev 5.977761014127e-006
field sum 0.88477719404717
field sqrsum 1.1410903943335e-005
field min 8.496e-007
field max 5.9453118e-005
statistic Basic.rack[2].node[7].app 	hops
field count 99783
field mean 4.2495214615716
field stddev 0.82941777306377
field sum 424030
field sqrsum 1870568
field min 3
field max 5
statistic Basic.rack[2].node[8].app 	throughput
field count 100414
field mean 50207.5
field stddev 28987.169302411
field sum 5041535905
field sqrsum 3.3749553808842e+014
field min 1
field max 100414
statistic Basic.rack[2].node[8].app 	"End-to-End Delay"
field count 100414
field mean 8.8754327927797e-006
field stddev 5.9501035696056e-006
field sum 0.89121770845419
field sqrsum 1.1464937865542e-005
field min 8.496e-007
field max 5.891226e-005
statistic Basic.rack[2].node[8].app 	hops
field count 100414
field mean 4.2459517597148
field stddev 0.83178715506711
field sum 426353
field sqrsum 1879747
field min 3
field max 5
statistic Basic.rack[2].node[9].app 	throughput
field count 99836
field mean 49918.5
field stddev 28820.315074614
field sum 4983663366
field sqrsum 3.3170100509311e+014
field min 1
field max 99836
statistic Basic.rack[2].node[9].app 	"End-to-End Delay"
field count 99836
field mean 8.8681724010294e-006
field stddev 5.9992725282899e-006
field sum 0.88536285982917
field sqrsum 1.144473900561e-005
field min 8.496e-007
field max 6.2977988e-005
statistic Basic.rack[2].node[9].app 	hops
field count 99836
field mean 4.2502904763813
field stddev 0.82890959465036
field sum 424332
field sqrsum 1872130
field min 3
field max 5
statistic Basic.rack[2].eps.queue[0] 	dropsum
field count 0
field mean nan
field stddev nan
field sum 0
field sqrsum 0
field min nan
field max nan
statistic Basic.rack[2].eps.queue[1] 	dropsum
field count 0
field mean nan
field stddev nan
field sum 0
field sqrsum 0
field min nan
field max nan
statistic Basic.rack[2].eps.queue[2] 	dropsum
field count 0
field mean nan
field stddev nan
field sum 0
field sqrsum 0
field min nan
field max nan
statistic Basic.rack[2].eps.queue[3] 	dropsum
field count 0
field mean nan
field stddev nan
field sum 0
field sqrsum 0
field min nan
field max nan
statistic Basic.rack[3].node[0].app 	throughput
field count 100040
field mean 50020.5
field stddev 28879.204802072
field sum 5004050820
field sqrsum 3.3373849737214e+014
field min 1
field max 100040
statistic Basic.rack[3].node[0].app 	"End-to-End Delay"
field count 100040
field mean 8.8410464030405e-006
field stddev 5.952680253363e-006
field sum 0.88445828216017
field sqrsum 1.1364358875695e-005
field min 8.496e-007
field max 7.496782e-005
statistic Basic.rack[3].node[0].app 	hops
field count 100040
field mean 4.2528288684526
field stddev 0.828332301607
field sum 425453
field sqrsum 1878019
field min 3
field max 5
statistic Basic.rack[3].node[1].app 	throughput
field count 99811
field mean 49906
field stddev 28813.098196249
field sum 4981167766
field sqrsum 3.3145188431741e+014
field min 1
field max 99811
statistic Basic.rack[3].node[1].app 	"End-to-End Delay"
field count 99811
field mean 8.8749614795381e-006
field stddev 5.9747102229507e-006
field sum 0.88581878023417
field sqrsum 1.1424541316426e-005
field min 8.496e-007
field max 6.038104e-005
statistic Basic.rack[3].node[1].app 	hops
field count 99811
field mean 4.2481890773562
field stddev 0.83061992977898
field sum 424016
field sqrsum 1870162
field min 3
field max 5
statistic Basic.rack[3].node[2].app 	throughput
field count 99909
field mean 49955
field stddev 28841.388359439
field sum 4990954095
field sqrsum 3.3242915210294e+014
field min 1
field max 99909
statistic Basic.rack[3].node[2].app 	"End-to-End Delay"
field count 99909
field mean 8.8480073110548e-006
field stddev 5.9716657429359e-006
field sum 0.88399556244017
field sqrsum 1.1384397581105e-005
field min 8.496e-007
field max 6.8080159e-005
statistic Basic.rack[3].node[2].app 	hops
field count 99909
field mean 4.2490666506521
field stddev 0.82879080431268
field sum 424520
field sqrsum 1872440
field min 3
field max 5
statistic Basic.rack[3].node[3].app 	throughput
field count 100951
field mean 50476
field stddev 29142.187849691
field sum 5095602676
field sqrsum 3.4293915569748e+014
field min 1
field max 100951
statistic Basic.rack[3].node[3].app 	"End-to-End Delay"
field count 100951
field mean 8.8454053570267e-006
field stddev 5.9687300781595e-006
field sum 0.8929525161972
field sqrsum 1.1494945296742e-005
field min 8.496e-007
field max 6.4507339e-005
statistic Basic.rack[3].node[3].app 	hops
field count 100951
field mean 4.2436726728809
field stddev 0.83074225759961
field sum 428403
field sqrsum 1887671
field min 3
field max 5
statistic Basic.rack[3].node[4].app 	throughput
field count 99382
field mean 49691.5
field stddev 28689.256563506
field sum 4938440653
field sqrsum 3.2719638546452e+014
field min 1
field max 99382
statistic Basic.rack[3].node[4].app 	"End-to-End Delay"
field count 99382
field mean 8.8575734207417e-006
field stddev 5.9568970417469e-006
field sum 0.88028336170015
field sqrsum 1.1323671762669e-005
field min 8.496e-007
field max 5.6527606e-005
statistic Basic.rack[3].node[4].app 	hops
field count 99382
field mean 4.2526413233785
field stddev 0.82829560676461
field sum 422636
field sqrsum 1865502
field min 3
field max 5
statistic Basic.rack[3].node[5].app 	throughput
field count 100316
field mean 50158.5
field stddev 28958.879139221
field sum 5031700086
field sqrsum 3.3650836111815e+014
field min 1
field max 100316
statistic Basic.rack[3].node[5].app 	"End-to-End Delay"
field count 100316
field mean 8.8487406257843e-006
field stddev 5.9779961379127e-006
field sum 0.88767026461617
field sqrsum 1.1439664693215e-005
field min 8.496e-007
field max 6.5235477e-005
statistic Basic.rack[3].node[5].app 	hops
field count 100316
field mean 4.2526715578771
field stddev 0.82789269253164
field sum 426611
field sqrsum 1882993
field min 3
field max 5
statistic Basic.rack[3].node[6].app 	throughput
field count 99632
field mean 49816.5
field stddev 28761.425347156
field sum 4963317528
field sqrsum 3.2967182240564e+014
field min 1
field max 99632
statistic Basic.rack[3].node[6].app 	"End-to-End Delay"
field count 99632
field mean 8.8648312193889e-006
field stddev 5.9766254840688e-006
field sum 0.88322086405015
field sqrsum 1.1388428407676e-005
field min 8.496e-007
field max 5.9020982e-005
statistic Basic.rack[3].node[6].app 	hops
field count 99632
field mean 4.250401477437
field stddev 0.82902709513641
field sum 423476
field sqrsum 1868418
field min 3
field max 5
statistic Basic.rack[3].node[7].app 	throughput
field count 99972
field mean 49986.5
field stddev 28859.574892919
field sum 4997250378
field sqrsum 3.3305840894307e+014
field min 1
field max 99972
statistic Basic.rack[3].node[7].app 	"End-to-End Delay"
field count 99972
field mean 8.874349143632e-006
field stddev 5.9571787532121e-006
field sum 0.88718643258718
field sqrsum 1.1420970876662e-005
field min 8.496e-007
field max 7.5312107e-005
statistic Basic.rack[3].node[7].app 	hops
field count 99972
field mean 4.24795942864
field stddev 0.83074874591737
field sum 424677
field sqrsum 1873005
field min 3
field max 5
statistic Basic.rack[3].node[8].app 	throughput
field count 99468
field mean 49734.5
field stddev 28714.082625081
field sum 4946991246
field sqrsum 3.2804653250183e+014
field min 1
field max 99468
statistic Basic.rack[3].node[8].app 	"End-to-End Delay"
field count 99468
field mean 8.8533989313564e-006
field stddev 5.9806407807742e-006
field sum 0.88062988490416
field sqrsum 1.1354309718606e-005
field min 8.496e-007
field max 6.7545112e-005
statistic Basic.rack[3].node[8].app 	hops
field count 99468
field mean 4.2480898379378
field stddev 0.82944305507253
field sum 422549
field sqrsum 1863457
field min 3
field max 5
statistic Basic.rack[3].node[9].app 	throughput
field count 100378
field mean 50189.5
field stddev 28976.776997566
field sum 5037921631
field sqrsum 3.3713267762489e+014
field min 1
field max 100378
statistic Basic.rack[3].node[9].app 	"End-to-End Delay"
field count 100378
field mean 8.8577315682736e-006
field stddev 5.9905774157462e-006
field sum 0.88912137936017
field sqrsum 1.1477829693091e-005
field min 8.496e-007
field max 7.0384064e-005
statistic Basic.rack[3].node[9].app 	hops
field count 100378
field mean 4.2481320608101
field stddev 0.82886530324248
field sum 426419
field sqrsum 1880445
field min 3
field max 5
statistic Basic.rack[3].eps.queue[0] 	dropsum
field count 0
field mean nan
field stddev nan
field sum 0
field sqrsum 0
field min nan
field max nan
statistic Basic.rack[3].eps.queue[1] 	dropsum
field count 0
field mean nan
field stddev nan
field sum 0
field sqrsum 0
field min nan
field max nan
statistic Basic.rack[3].eps.queue[2] 	dropsum
field count 0
field mean nan
field stddev nan
field sum 0
field sqrsum 0
field min nan
field max nan
statistic Basic.rack[3].eps.queue[3] 	dropsum
field count 0
field mean nan
field stddev nan
field sum 0
field sqrsum 0
field min nan
field max nan
statistic Basic.rack[4].node[0].app 	throughput
field count 100306
field mean 50153.5
field stddev 28955.992387875
field sum 5030696971
field sqrsum 3.3640773714774e+014
field min 1
field max 100306
statistic Basic.rack[4].node[0].app 	"End-to-End Delay"
field count 100306
field mean 1.440175068726e-005
field stddev 8.2191111918009e-006
field sum 1.4445820044363
field sqrsum 2.7580492659092e-005
field min 8.992e-006
field max 0.000118617046
statistic Basic.rack[4].node[0].app 	hops
field count 100306
field mean 4.0007576814946
field stddev 1.0000046977419
field sum 401300
field sqrsum 1705810
field min 3
field max 5
statistic Basic.rack[4].node[1].app 	throughput
field count 99909
field mean 49955
field stddev 28841.388359439
field sum 4990954095
field sqrsum 3.3242915210294e+014
field min 1
field max 99909
statistic Basic.rack[4].node[1].app 	"End-to-End Delay"
field count 99909
field mean 1.4374720412949e-005
field stddev 8.1963469118244e-006
field sum 1.4361639417373
field sqrsum 2.7356284830082e-005
field min 8.992e-006
field max 0.000115306389
statistic Basic.rack[4].node[1].app 	hops
field count 99909
field mean 3.9957461289774
field stddev 0.99999595679616
field sum 399211
field sqrsum 1695053
field min 3
field max 5
statistic Basic.rack[4].node[2].app 	throughput
field count 100470
field mean 50235.5
field stddev 29003.335109949
field sum 5047160685
field sqrsum 3.380605050682e+014
field min 1
field max 100470
statistic Basic.rack[4].node[2].app 	"End-to-End Delay"
field count 100470
field mean 1.4372195651143e-005
field stddev 8.1568061407135e-006
field sum 1.4439744970703
field sqrsum 2.7437636834004e-005
field min 8.992e-006
field max 9.8988382e-005
statistic Basic.rack[4].node[2].app 	hops
field count 100470
field mean 4.0001194386384
field stddev 1.0000049695143
field sum 401892
field sqrsum 1708086
field min 3
field max 5
statistic Basic.rack[4].node[3].app 	throughput
field count 100000
field mean 50000.5
field stddev 28867.657796688
field sum 5000050000
field sqrsum 3.3333833335e+014
field min 1
field max 100000
statistic Basic.rack[4].node[3].app 	"End-to-End Delay"
field count 100000
field mean 1.4406070801793e-005
field stddev 8.2163397125017e-006
field sum 1.4406070801793
field sqrsum 2.7504243913513e-005
field min 8.992e-006
field max 0.000127382037
statistic Basic.rack[4].node[3].app 	hops
field count 100000
field mean 4.00274
field stddev 1.0000012462117
field sum 400274
field sqrsum 1702192
field min 3
field max 5
statistic Basic.rack[4].node[4].app 	throughput
field count 100100
field mean 50050.5
field stddev 28896.525310148
field sum 5010055050
field sqrsum 3.3433934368835e+014
field min 1
field max 100100
statistic Basic.rack[4].node[4].app 	"End-to-End Delay"
field count 100100
field mean 1.4378925799214e-005
field stddev 8.158308168215e-006
field sum 1.4393304725013
field sqrsum 2.7358414522625e-005
field min 8.992e-006
field max 0.000124147769
statistic Basic.rack[4].node[4].app 	hops
field count 100100
field mean 3.9995204795205
field stddev 1.0000048800719
field sum 400352
field sqrsum 1701316
field min 3
field max 5
statistic Basic.rack[4].node[5].app 	throughput
field count 100038
field mean 50019.5
field stddev 28878.627451802
field sum 5003850741
field sqrsum 3.3371848156902e+014
field min 1
field max 100038
statistic Basic.rack[4].node[5].app 	"End-to-End Delay"
field count 100038
field mean 1.4440026317673e-005
field stddev 8.2209569446775e-006
field sum 1.4445513527673
field sqrsum 2.7620273472738e-005
field min 8.992e-006
field max 0.000114180795
statistic Basic.rack[4].node[5].app 	hops
field count 100038
field mean 4.0015594074252
field stddev 1.0000037822556
field sum 400308
field sqrsum 1701894
field min 3
field max 5
statistic Basic.rack[4].node[6].app 	throughput
field count 100337
field mean 50169
field stddev 28964.941317047
field sum 5033806953
field sqrsum 3.3671973676442e+014
field min 1
field max 100337
statistic Basic.rack[4].node[6].app 	"End-to-End Delay"
field count 100337
field mean 1.4385580113291e-005
field stddev 8.191257308143e-006
field sum 1.4434059518273
field sqrsum 2.7496446074787e-005
field min 8.992e-006
field max 0.000120762503
statistic Basic.rack[4].node[6].app 	hops
field count 100337
field mean 3.9988139968307
field stddev 1.0000042799383
field sum 401229
field sqrsum 1704777
field min 3
field max 5
statistic Basic.rack[4].node[7].app 	throughput
field count 99919
field mean 49960
field stddev 28844.275110785
field sum 4991953240
field sqrsum 3.3252898117612e+014
field min 1
field max 99919
statistic Basic.rack[4].node[7].app 	"End-to-End Delay"
field count 99919
field mean 1.4364585929226e-005
field stddev 8.1157543758864e-006
field sum 1.4352950614623
field sqrsum 2.7198565184676e-005
field min 8.992e-006
field max 0.000108961905
statistic Basic.rack[4].node[7].app 	hops
field count 99919
field mean 3.9988290515317
field stddev 1.000004318527
field sum 399559
field sqrsum 1697687
field min 3
field max 5
statistic Basic.rack[4].node[8].app 	throughput
field count 100705
field mean 50353
field stddev 29071.17376658
field sum 5070798865
field sqrsum 3.404382233995e+014
field min 1
field max 100705
statistic Basic.rack[4].node[8].app 	"End-to-End Delay"
field count 100705
field mean 1.433098500466e-005
field stddev 8.1049102638236e-006
field sum 1.4432018448943
field sqrsum 2.7297706493893e-005
field min 8.992e-006
field max 0.000120353172
statistic Basic.rack[4].node[8].app 	hops
field count 100705
field mean 3.9946675934661
field stddev 0.99999074758237
field sum 402283
field sqrsum 1707689
field min 3
field max 5
statistic Basic.rack[4].node[9].app 	throughput
field count 100273
field mean 50137
field stddev 28946.466108433
field sum 5027387401
field sqrsum 3.3607582036945e+014
field min 1
field max 100273
statistic Basic.rack[4].node[9].app 	"End-to-End Delay"
field count 100273
field mean 1.4392029358604e-005
field stddev 8.1775203874528e-006
field sum 1.4431319598753
field sqrsum 2.7474970643982e-005
field min 8.992e-006
field max 0.000118861049
statistic Basic.rack[4].node[9].app 	hops
field count 100273
field mean 4.0037597359209
field stddev 0.99999791855714
field sum 401469
field sqrsum 1707657
field min 3
field max 5
statistic Basic.rack[4].eps.queue[0] 	dropsum
field count 0
field mean nan
field stddev nan
field sum 0
field sqrsum 0
field min nan
field max nan
statistic Basic.rack[4].eps.queue[1] 	dropsum
field count 0
field mean nan
field stddev nan
field sum 0
field sqrsum 0
field min nan
field max nan
statistic Basic.rack[4].eps.queue[2] 	dropsum
field count 0
field mean nan
field stddev nan
field sum 0
field sqrsum 0
field min nan
field max nan
statistic Basic.rack[4].eps.queue[3] 	dropsum
field count 0
field mean nan
field stddev nan
field sum 0
field sqrsum 0
field min nan
field max nan
statistic Basic.rack[5].node[0].app 	throughput
field count 100195
field mean 50098
field stddev 28923.949447934
field sum 5019569110
field sqrsum 3.3529215784067e+014
field min 1
field max 100195
statistic Basic.rack[5].node[0].app 	"End-to-End Delay"
field count 100195
field mean 1.4404473703821e-005
field stddev 8.2184803294278e-006
field sum 1.4432562427543
field sqrsum 2.755679191242e-005
field min 8.992e-006
field max 0.000107690593
statistic Basic.rack[5].node[0].app 	hops
field count 100195
field mean 4.0021657767354
field stddev 1.0000026449974
field sum 400997
field sqrsum 1705051
field min 3
field max 5
statistic Basic.rack[5].node[1].app 	throughput
field count 99453
field mean 49727
field stddev 28709.752498062
field sum 4945499331
field sqrsum 3.2789814514374e+014
field min 1
field max 99453
statistic Basic.rack[5].node[1].app 	"End-to-End Delay"
field count 99453
field mean 1.4425819206161e-005
field stddev 8.26792528201e-006
field sum 1.4346909975103
field sqrsum 2.7494991287199e-005
field min 8.992e-006
field max 0.000105846686
statistic Basic.rack[5].node[1].app 	hops
field count 99453
field mean 3.9973957547786
field stddev 1.000001636469
field sum 397553
field sqrsum 1688629
field min 3
field max 5
statistic Basic.rack[5].node[2].app 	throughput
field count 100390
field mean 50195.5
field stddev 28980.241099181
field sum 5039126245
field sqrsum 3.3725360219912e+014
field min 1
field max 100390
statistic Basic.rack[5].node[2].app 	"End-to-End Delay"
field count 100390
field mean 1.4456755431062e-005
field stddev 8.2663725617669e-006
field sum 1.4513136777243
field sqrsum 2.7841159929672e-005
field min 8.992e-006
field max 0.000116503658
statistic Basic.rack[5].node[2].app 	hops
field count 100390
field mean 3.998884351031
field stddev 1.0000043582734
field sum 401448
field sqrsum 1705734
field min 3
field max 5
statistic Basic.rack[5].node[3].app 	throughput
field count 100068
field mean 50034.5
field stddev 28887.28770584
field sum 5006852346
field sqrsum 3.3401880265713e+014
field min 1
field max 100068
statistic Basic.rack[5].node[3].app 	"End-to-End Delay"
field count 100068
field mean 1.4447233771019e-005
field stddev 8.2275445236028e-006
field sum 1.4457057889983
field sqrsum 2.7660233783317e-005
field min 8.992e-006
field max 0.000125754872
statistic Basic.rack[5].node[3].app 	hops
field count 100068
field mean 4.0006395650957
field stddev 1.000004792117
field sum 400336
field sqrsum 1701668
field min 3
field max 5
statistic Basic.rack[5].node[4].app 	throughput
field count 100680
field mean 50340.5
field stddev 29063.956888215
field sum 5068281540
field sqrsum 3.4018474639198e+014
field min 1
field max 100680
statistic Basic.rack[5].node[4].app 	"End-to-End Delay"
field count 100680
field mean 1.4376387150828e-005
field stddev 8.1947355584774e-006
field sum 1.4474146583453
field sqrsum 2.7569559939595e-005
field min 8.992e-006
field max 0.000109308463
statistic Basic.rack[5].node[4].app 	hops
field count 100680
field mean 3.9992252681764
field stddev 1.0000046661604
field sum 402642
field sqrsum 1710936
field min 3
field max 5
statistic Basic.rack[5].node[5].app 	throughput
field count 100489
field mean 50245
field stddev 29008.819937506
field sum 5049069805
field sqrsum 3.3825233344636e+014
field min 1
field max 100489
statistic Basic.rack[5].node[5].app 	"End-to-End Delay"
field count 100489
field mean 1.4382716441604e-005
field stddev 8.1997152456905e-006
field sum 1.4453047925003
field sqrsum 2.7543752854357e-005
field min 8.992e-006
field max 0.000115268915
statistic Basic.rack[5].node[5].app 	hops
field count 100489
field mean 4.0002487834489
field stddev 1.0000049447594
field sum 401981
field sqrsum 1708513
field min 3
field max 5
statistic Basic.rack[5].node[6].app 	throughput
field count 100281
field mean 50141
field stddev 28948.77550951
field sum 5028189621
field sqrsum 3.3615626498554e+014
field min 1
field max 100281
statistic Basic.rack[5].node[6].app 	"End-to-End Delay"
field count 100281
field mean 1.4464495650096e-005
field stddev 8.2696122913405e-006
field sum 1.4505140882873
field sqrsum 2.783875168183e-005
field min 8.992e-006
field max 0.000140704356
statistic Basic.rack[5].node[6].app 	hops
field count 100281
field mean 3.9986138949552
field stddev 1.0000040253778
field sum 400985
field sqrsum 1703665
field min 3
field max 5
statistic Basic.rack[5].node[7].app 	throughput
field count 100259
field mean 50130
field stddev 28942.424656549
field sum 5025983670
field sqrsum 3.3593507317491e+014
field min 1
field max 100259
statistic Basic.rack[5].node[7].app 	"End-to-End Delay"
field count 100259
field mean 1.4424098459274e-005
field stddev 8.2167648504625e-006
field sum 1.4461456874283
field sqrsum 2.7628289170648e-005
field min 8.992e-006
field max 0.000124161284
statistic Basic.rack[5].node[7].app 	hops
field count 100259
field mean 3.9989726608085
field stddev 1.0000044594051
field sum 400933
field sqrsum 1703579
field min 3
field max 5
statistic Basic.rack[5].node[8].app 	throughput
field count 99822
field mean 49911.5
field stddev 28816.273622729
field sum 4982265753
field sqrsum 3.315614820859e+014
field min 1
field max 99822
statistic Basic.rack[5].node[8].app 	"End-to-End Delay"
field count 99822
field mean 1.4380743095994e-005
field stddev 8.2052639866455e-006
field sum 1.4355145373283
field sqrsum 2.7364350063019e-005
field min 8.992e-006
field max 0.000129116993
statistic Basic.rack[5].node[8].app 	hops
field count 99822
field mean 3.9954318687263
field stddev 0.99999457493514
field sum 398832
field sqrsum 1693326
field min 3
field max 5
statistic Basic.rack[5].node[9].app 	throughput
field count 100054
field mean 50027.5
field stddev 28883.246253956
field sum 5005451485
field sqrsum 3.3387863040396e+014
field min 1
field max 100054
statistic Basic.rack[5].node[9].app 	"End-to-End Delay"
field count 100054
field mean 1.4447513666213e-005
field stddev 8.2700198643695e-006
field sum 1.4455315323593
field sqrsum 2.7727284265523e-005
field min 8.992e-006
field max 0.000133989217
statistic Basic.rack[5].node[9].app 	hops
field count 100054
field mean 3.9997401403242
field stddev 1.0000049635752
field sum 400190
field sqrsum 1700710
field min 3
field max 5
statistic Basic.rack[5].eps.queue[0] 	dropsum
field count 0
field mean nan
field stddev nan
field sum 0
field sqrsum 0
field min nan
field max nan
statistic Basic.rack[5].eps.queue[1] 	dropsum
field count 0
field mean nan
field stddev nan
field sum 0
field sqrsum 0
field min nan
field max nan
statistic Basic.rack[5].eps.queue[2] 	dropsum
field count 0
field mean nan
field stddev nan
field sum 0
field sqrsum 0
field min nan
field max nan
statistic Basic.rack[5].eps.queue[3] 	dropsum
field count 0
field mean nan
field stddev nan
field sum 0
field sqrsum 0
field min nan
field max nan
statistic Basic.rack[6].node[0].app 	throughput
field count 99982
field mean 49991.5
field stddev 28862.461644265
field sum 4998250153
field sqrsum 3.3315836394822e+014
field min 1
field max 99982
statistic Basic.rack[6].node[0].app 	"End-to-End Delay"
field count 99982
field mean 8.8645502799322e-006
field stddev 5.971149861409e-006
field sum 0.88629546608818
field sqrsum 1.1421396350772e-005
field min 8.496e-007
field max 6.4732692e-005
statistic Basic.rack[6].node[0].app 	hops
field count 99982
field mean 4.25123522234
field stddev 0.82911569562962
field sum 425047
field sqrsum 1875705
field min 3
field max 5
statistic Basic.rack[6].node[1].app 	throughput
field count 99817
field mean 49909
field stddev 28814.830247056
field sum 4981766653
field sqrsum 3.3151166192388e+014
field min 1
field max 99817
statistic Basic.rack[6].node[1].app 	"End-to-End Delay"
field count 99817
field mean 8.8389649351129e-006
field stddev 5.9747570236662e-006
field sum 0.88227896292816
field sqrsum 1.136163658474e-005
field min 8.496e-007
field max 6.8322555e-005
statistic Basic.rack[6].node[1].app 	hops
field count 99817
field mean 4.2489956620616
field stddev 0.82823717345439
field sum 424122
field sqrsum 1870564
field min 3
field max 5
statistic Basic.rack[6].node[2].app 	throughput
field count 99547
field mean 49774
field stddev 28736.887960715
field sum 4954852378
field sqrsum 3.2882877806597e+014
field min 1
field max 99547
statistic Basic.rack[6].node[2].app 	"End-to-End Delay"
field count 99547
field mean 8.893011730099e-006
field stddev 5.9596949156735e-006
field sum 0.88527263869617
field sqrsum 1.1408411153628e-005
field min 8.496e-007
field max 5.9147142e-005
statistic Basic.rack[6].node[2].app 	hops
field count 99547
field mean 4.2524033873447
field stddev 0.82983582335138
field sum 423314
field sqrsum 1868652
field min 3
field max 5
statistic Basic.rack[6].node[3].app 	throughput
field count 100341
field mean 50171
field stddev 28966.096017586
field sum 5034208311
field sqrsum 3.3676000882547e+014
field min 1
field max 100341
statistic Basic.rack[6].node[3].app 	"End-to-End Delay"
field count 100341
field mean 8.8498885264266e-006
field stddev 5.9454927547518e-006
field sum 0.88800666463018
field sqrsum 1.1405667022974e-005
field min 8.496e-007
field max 6.6909344e-005
statistic Basic.rack[6].node[3].app 	hops
field count 100341
field mean 4.2464894709042
field stddev 0.83036224276934
field sum 426097
field sqrsum 1878601
field min 3
field max 5
statistic Basic.rack[6].node[4].app 	throughput
field count 99647
field mean 49824
field stddev 28765.755474174
field sum 4964812128
field sqrsum 3.2982074434992e+014
field min 1
field max 99647
statistic Basic.rack[6].node[4].app 	"End-to-End Delay"
field count 99647
field mean 8.8747426272659e-006
field stddev 5.958098751014e-006
field sum 0.88434147857916
field sqrsum 1.1385630464672e-005
field min 8.496e-007
field max 7.1388231e-005
statistic Basic.rack[6].node[4].app 	hops
field count 99647
field mean 4.2491394623019
field stddev 0.8308986863562
field sum 423414
field sqrsum 1867940
field min 3
field max 5
statistic Basic.rack[6].node[5].app 	throughput
field count 99891
field mean 49946
field stddev 28836.192207017
field sum 4989155886
field sqrsum 3.3224951012425e+014
field min 1
field max 99891
statistic Basic.rack[6].node[5].app 	"End-to-End Delay"
field count 99891
field mean 8.8715029774871e-006
field stddev 5.9650120180415e-006
field sum 0.88618330392416
field sqrsum 1.1416000706379e-005
field min 8.496e-007
field max 6.1449835e-005
statistic Basic.rack[6].node[5].app 	hops
field count 99891
field mean 4.2478902003183
field stddev 0.83037093884773
field sum 424326
field sqrsum 1871366
field min 3
field max 5
statistic Basic.rack[6].node[6].app 	throughput
field count 100222
field mean 50111.5
field stddev 28931.743676569
field sum 5022274753
field sqrsum 3.355632876217e+014
field min 1
field max 100222
statistic Basic.rack[6].node[6].app 	"End-to-End Delay"
field count 100222
field mean 8.8944261537205e-006
field stddev 6.0058309488422e-006
field sum 0.89141717797818
field sqrsum 1.1543616271482e-005
field min 8.496e-007
field max 6.5093268e-005
statistic Basic.rack[6].node[6].app 	hops
field count 100222
field mean 4.2498852547345
field stddev 0.82975728866032
field sum 425932
field sqrsum 1879164
field min 3
field max 5
statistic Basic.rack[6].node[7].app 	throughput
field count 100138
field mean 50069.5
field stddev 28907.494965262
field sum 5013859591
field sqrsum 3.3472025243557e+014
field min 1
field max 100138
statistic Basic.rack[6].node[7].app 	"End-to-End Delay"
field count 100138
field mean 8.8976015145617e-006
field stddev 5.9988538643977e-006
field sum 0.89098802046518
field sqrsum 1.153121124492e-005
field min 8.496e-007
field max 7.0261133e-005
statistic Basic.rack[6].node[7].app 	hops
field count 100138
field mean 4.2534003075755
field stddev 0.8286669464559
field sum 425927
field sqrsum 1880401
field min 3
field max 5
statistic Basic.rack[6].node[8].app 	throughput
field count 99282
field mean 49641.5
field stddev 28660.389050046
field sum 4928507403
field sqrsum 3.2620969082556e+014
field min 1
field max 99282
statistic Basic.rack[6].node[8].app 	"End-to-End Delay"
field count 99282
field mean 8.8645110081601e-006
field stddev 5.9680444683728e-006
field sum 0.88008638191215
field sqrsum 1.1337681876355e-005
field min 8.496e-007
field max 6.5260743e-005
statistic Basic.rack[6].node[8].app 	hops
field count 99282
field mean 4.2481920186942
field stddev 0.82978529355351
field sum 421769
field sqrsum 1860115
field min 3
field max 5
statistic Basic.rack[6].node[9].app 	throughput
field count 99710
field mean 49855.5
field stddev 28783.942007654
field sum 4971091905
field sqrsum 3.3044670626234e+014
field min 1
field max 99710
statistic Basic.rack[6].node[9].app 	"End-to-End Delay"
field count 99710
field mean 8.8403721707066e-006
field stddev 6.0050219677724e-006
field sum 0.88147350914116
field sqrsum 1.1388089218719e-005
field min 8.496e-007
field max 7.6733211e-005
statistic Basic.rack[6].node[9].app 	hops
field count 99710
field mean 4.2439775348511
field stddev 0.82910673100243
field sum 423167
field sqrsum 1864453
field min 3
field max 5
statistic Basic.rack[6].eps.queue[0] 	dropsum
field count 0
field mean nan
field stddev nan
field sum 0
field sqrsum 0
field min nan
field max nan
statistic Basic.rack[6].eps.queue[1] 	dropsum
field count 0
field mean nan
field stddev nan
field sum 0
field sqrsum 0
field min nan
field max nan
statistic Basic.rack[6].eps.queue[2] 	dropsum
field count 0
field mean nan
field stddev nan
field sum 0
field sqrsum 0
field min nan
field max nan
statistic Basic.rack[6].eps.queue[3] 	dropsum
field count 0
field mean nan
field stddev nan
field sum 0
field sqrsum 0
field min nan
field max nan
statistic Basic.rack[7].node[0].app 	throughput
field count 99610
field mean 49805.5
field stddev 28755.074494194
field sum 4961125855
field sqrsum 3.2945348465298e+014
field min 1
field max 99610
statistic Basic.rack[7].node[0].app 	"End-to-End Delay"
field count 99610
field mean 8.8348584266355e-006
field stddev 5.9596302495107e-006
field sum 0.88004024787717
field sqrsum 1.1312863048474e-005
field min 8.496e-007
field max 6.9980582e-005
statistic Basic.rack[7].node[0].app 	hops
field count 99610
field mean 4.2508884650136
field stddev 0.82790729973321
field sum 423431
field sqrsum 1868233
field min 3
field max 5
statistic Basic.rack[7].node[1].app 	throughput
field count 100346
field mean 50173.5
field stddev 28967.539393259
field sum 5034710031
field sqrsum 3.3681035341716e+014
field min 1
field max 100346
statistic Basic.rack[7].node[1].app 	"End-to-End Delay"
field count 100346
field mean 8.8819895994775e-006
field stddev 5.9920462621439e-006
field sum 0.89127212834917
field sqrsum 1.1519118708419e-005
field min 8.496e-007
field max 6.2860102e-005
statistic Basic.rack[7].node[1].app 	hops
field count 100346
field mean 4.253632431786
field stddev 0.82873911479475
field sum 426835
field sqrsum 1884517
field min 3
field max 5
statistic Basic.rack[7].node[2].app 	throughput
field count 99822
field mean 49911.5
field stddev 28816.273622729
field sum 4982265753
field sqrsum 3.315614820859e+014
field min 1
field max 99822
statistic Basic.rack[7].node[2].app 	"End-to-End Delay"
field count 99822
field mean 8.8913359172145e-006
field stddev 5.9646735427483e-006
field sum 0.88755093392819
field sqrsum 1.1442878202195e-005
field min 8.496e-007
field max 7.0663755e-005
statistic Basic.rack[7].node[2].app 	hops
field count 99822
field mean 4.2561860110998
field stddev 0.82906326691238
field sum 424861
field sqrsum 1876899
field min 3
field max 5
statistic Basic.rack[7].node[3].app 	throughput
field count 100587
field mean 50294
field stddev 29037.110100697
field sum 5058922578
field sqrsum 3.3924291654305e+014
field min 1
field max 100587
statistic Basic.rack[7].node[3].app 	"End-to-End Delay"
field count 100587
field mean 8.8831986638053e-006
field stddev 6.0055012413402e-006
field sum 0.89353430399618
field sqrsum 1.1565181953761e-005
field min 8.496e-007
field max 6.812827e-005
statistic Basic.rack[7].node[3].app 	hops
field count 100587
field mean 4.2506884587472
field stddev 0.82892694236
field sum 427564
field sqrsum 1886556
field min 3
field max 5
statistic Basic.rack[7].node[4].app 	throughput
field count 100445
field mean 50223
field stddev 28996.118231584
field sum 5044649235
field sqrsum 3.378082098228e+014
field min 1
field max 100445
statistic Basic.rack[7].node[4].app 	"End-to-End Delay"
field count 100445
field mean 8.8621271887121e-006
field stddev 5.9939842796669e-006
field sum 0.89015636547018
field sqrsum 1.1497415647438e-005
field min 8.496e-007
field max 7.2066648e-005
statistic Basic.rack[7].node[4].app 	hops
field count 100445
field mean 4.2478769475833
field stddev 0.82963100270172
field sum 426678
field sqrsum 1881610
field min 3
field max 5
statistic Basic.rack[7].node[5].app 	throughput
field count 100073
field mean 50037
field stddev 28888.731081513
field sum 5007352701
field sqrsum 3.3406887368235e+014
field min 1
field max 100073
statistic Basic.rack[7].node[5].app 	"End-to-End Delay"
field count 100073
field mean 8.866243611925e-006
field stddev 5.9947425060277e-006
field sum 0.88727159697617
field sqrsum 1.1463047359605e-005
field min 8.496e-007
field max 6.5479237e-005
statistic Basic.rack[7].node[5].app 	hops
field count 100073
field mean 4.2490781729338
field stddev 0.82871002600026
field sum 425218
field sqrsum 1875510
field min 3
field max 5
statistic Basic.rack[7].node[6].app 	throughput
field count 100162
field mean 50081.5
field stddev 28914.423168493
field sum 5016263203
field sqrsum 3.3496097538032e+014
field min 1
field max 100162
statistic Basic.rack[7].node[6].app 	"End-to-End Delay"
field count 100162
field mean 8.8564347194761e-006
field stddev 5.9723464043677e-006
field sum 0.88707821437217
field sqrsum 1.1428985150406e-005
field min 8.496e-007
field max 6.7076748e-005
statistic Basic.rack[7].node[6].app 	hops
field count 100162
field mean 4.2520117409796
field stddev 0.82866256033641
field sum 425890
field sqrsum 1879668
field min 3
field max 5
statistic Basic.rack[7].node[7].app 	throughput
field count 99982
field mean 49991.5
field stddev 28862.461644265
field sum 4998250153
field sqrsum 3.3315836394822e+014
field min 1
field max 99982
statistic Basic.rack[7].node[7].app 	"End-to-End Delay"
field count 99982
field mean 8.8830843365423e-006
field stddev 5.9901918163936e-006
field sum 0.88814853813617
field sqrsum 1.1477056401797e-005
field min 8.496e-007
field max 5.9864773e-005
statistic Basic.rack[7].node[7].app 	hops
field count 99982
field mean 4.252345422176
field stddev 0.82886897909383
field sum 425158
field sqrsum 1876608
field min 3
field max 5
statistic Basic.rack[7].node[8].app 	throughput
field count 99524
field mean 49762.5
field stddev 28730.248432619
field sum 4952563050
field sqrsum 3.2860090751315e+014
field min 1
field max 99524
statistic Basic.rack[7].node[8].app 	"End-to-End Delay"
field count 99524
field mean 8.8977070778321e-006
field stddev 5.9900308700854e-006
field sum 0.88553539921417
field sqrsum 1.145016658761e-005
field min 8.496e-007
field max 5.9623537e-005
statistic Basic.rack[7].node[8].app 	hops
field count 99524
field mean 4.2485832563
field stddev 0.83041546587031
field sum 422836
field sqrsum 1865084
field min 3
field max 5
statistic Basic.rack[7].node[9].app 	throughput
field count 99786
field mean 49893.5
field stddev 28805.881317884
field sum 4978672791
field sqrsum 3.3120288830608e+014
field min 1
field max 99786
statistic Basic.rack[7].node[9].app 	"End-to-End Delay"
field count 99786
field mean 8.8229106595632e-006
field stddev 5.9716347764427e-006
field sum 0.88040296307517
field sqrsum 1.132609188724e-005
field min 8.496e-007
field max 6.8644762e-005
statistic Basic.rack[7].node[9].app 	hops
field count 99786
field mean 4.2422584330467
field stddev 0.83031240903226
field sum 423318
field sqrsum 1864618
field min 3
field max 5
statistic Basic.rack[7].eps.queue[0] 	dropsum
field count 0
field mean nan
field stddev nan
field sum 0
field sqrsum 0
field min nan
field max nan
statistic Basic.rack[7].eps.queue[1] 	dropsum
field count 0
field mean nan
field stddev nan
field sum 0
field sqrsum 0
field min nan
field max nan
statistic Basic.rack[7].eps.queue[2] 	dropsum
field count 0
field mean nan
field stddev nan
field sum 0
field sqrsum 0
field min nan
field max nan
statistic Basic.rack[7].eps.queue[3] 	dropsum
field count 0
field mean nan
field stddev nan
field sum 0
field sqrsum 0
field min nan
field max nan
statistic Basic.rack[8].node[0].app 	throughput
field count 99814
field mean 49907.5
field stddev 28813.964221652
field sum 4981467205
field sqrsum 3.3148177222232e+014
field min 1
field max 99814
statistic Basic.rack[8].node[0].app 	"End-to-End Delay"
field count 99814
field mean 1.4387852150654e-005
field stddev 8.1506195376315e-006
field sum 1.4361090745653
field sqrsum 2.7293362025796e-005
field min 8.992e-006
field max 0.000100695965
statistic Basic.rack[8].node[0].app 	hops
field count 99814
field mean 4.0012823852365
field stddev 1.0000041870946
field sum 399384
field sqrsum 1697862
field min 3
field max 5
statistic Basic.rack[8].node[1].app 	throughput
field count 100521
field mean 50261
field stddev 29018.057541814
field sum 5052285981
field sqrsum 3.3857557682606e+014
field min 1
field max 100521
statistic Basic.rack[8].node[1].app 	"End-to-End Delay"
field count 100521
field mean 1.4371401411131e-005
field stddev 8.1423629907218e-006
field sum 1.4446276412483
field sqrsum 2.7425606228301e-005
field min 8.992e-006
field max 0.000104538584
statistic Basic.rack[8].node[1].app 	hops
field count 100521
field mean 3.998836064106
field stddev 1.0000042967451
field sum 401967
field sqrsum 1707921
field min 3
field max 5
statistic Basic.rack[8].node[2].app 	throughput
field count 99789
field mean 49895
field stddev 28806.747343287
field sum 4978972155
field sqrsum 3.3123276124092e+014
field min 1
field max 99789
statistic Basic.rack[8].node[2].app 	"End-to-End Delay"
field count 99789
field mean 1.4371919912579e-005
field stddev 8.1875334459595e-006
field sum 1.4341595161563
field sqrsum 2.73009845317e-005
field min 8.992e-006
field max 0.000106588391
statistic Basic.rack[8].node[2].app 	hops
field count 99789
field mean 4.0008117127138
field stddev 1.0000046811695
field sum 399237
field sqrsum 1697061
field min 3
field max 5
statistic Basic.rack[8].node[3].app 	throughput
field count 100020
field mean 50010.5
field stddev 28873.43129938
field sum 5002050210
field sqrsum 3.3353837535287e+014
field min 1
field max 100020
statistic Basic.rack[8].node[3].app 	"End-to-End Delay"
field count 100020
field mean 1.4400562374848e-005
field stddev 8.1691615260808e-006
field sum 1.4403442487323
field sqrsum 2.7416555167844e-005
field min 8.992e-006
field max 9.9631969e-005
statistic Basic.rack[8].node[3].app 	hops
field count 100020
field mean 4.0038592281544
field stddev 0.99999755215176
field sum 400466
field sqrsum 1703428
field min 3
field max 5
statistic Basic.rack[8].node[4].app 	throughput
field count 100252
field mean 50126.5
field stddev 28940.403930607
field sum 5025281878
field sqrsum 3.3586471431613e+014
field min 1
field max 100252
statistic Basic.rack[8].node[4].app 	"End-to-End Delay"
field count 100252
field mean 1.4371778540062e-005
field stddev 8.2296340322019e-006
field sum 1.4407995421983
field sqrsum 2.7496539017448e-005
field min 8.992e-006
field max 0.000102421057
statistic Basic.rack[8].node[4].app 	hops
field count 100252
field mean 4.0010174360611
field stddev 1.0000044698782
field sum 401110
field sqrsum 1705100
field min 3
field max 5
statistic Basic.rack[8].node[5].app 	throughput
field count 99915
field mean 49958
field stddev 28843.120410247
field sum 4991553570
field sqrsum 3.3248904714889e+014
field min 1
field max 99915
statistic Basic.rack[8].node[5].app 	"End-to-End Delay"
field count 99915
field mean 1.4397543540613e-005
field stddev 8.1869257464853e-006
field sum 1.4385305628603
field sqrsum 2.7408117516356e-005
field min 8.992e-006
field max 0.000100879671
statistic Basic.rack[8].node[5].app 	hops
field count 99915
field mean 3.9999899914928
field stddev 1.0000050042411
field sum 399659
field sqrsum 1698547
field min 3
field max 5
statistic Basic.rack[8].node[6].app 	throughput
field count 100027
field mean 50014
field stddev 28875.452025322
field sum 5002750378
field sqrsum 3.3360840895693e+014
field min 1
field max 100027
statistic Basic.rack[8].node[6].app 	"End-to-End Delay"
field count 100027
field mean 1.4320945066125e-005
field stddev 8.1130466788046e-006
field sum 1.4324811721293
field sqrsum 2.7098348175256e-005
field min 8.992e-006
field max 0.000106321502
statistic Basic.rack[8].node[6].app 	hops
field count 100027
field mean 3.998450418387
field stddev 1.0000037980795
field sum 399953
field sqrsum 1699219
field min 3
field max 5
statistic Basic.rack[8].node[7].app 	throughput
field count 100380
field mean 50190.5
field stddev 28977.354347835
field sum 5038122390
field sqrsum 3.3715282971293e+014
field min 1
field max 100380
statistic Basic.rack[8].node[7].app 	"End-to-End Delay"
field count 100380
field mean 1.4345915683127e-005
field stddev 8.1277181587638e-006
field sum 1.4400430162723
field sqrsum 2.7289752603484e-005
field min 8.992e-006
field max 0.000101351538
statistic Basic.rack[8].node[7].app 	hops
field count 100380
field mean 3.9979278740785
field stddev 1.0000028342432
field sum 401312
field sqrsum 1704796
field min 3
field max 5
statistic Basic.rack[8].node[8].app 	throughput
field count 99979
field mean 49990
field stddev 28861.595618861
field sum 4997950210
field sqrsum 3.3312837534713e+014
field min 1
field max 99979
statistic Basic.rack[8].node[8].app 	"End-to-End Delay"
field count 99979
field mean 1.4370236202436e-005
field stddev 8.1588111307247e-006
field sum 1.4367218452833
field sqrsum 2.7301187724226e-005
field min 8.992e-006
field max 0.00010230962
statistic Basic.rack[8].node[8].app 	hops
field count 99979
field mean 4.0023905020054
field stddev 1.0000021438194
field sum 400155
field sqrsum 1701555
field min 3
field max 5
statistic Basic.rack[8].node[9].app 	throughput
field count 99668
field mean 49834.5
field stddev 28771.817652001
field sum 4966904946
field sqrsum 3.3002931040693e+014
field min 1
field max 99668
statistic Basic.rack[8].node[9].app 	"End-to-End Delay"
field count 99668
field mean 1.4372379004669e-005
field stddev 8.1841475003406e-006
field sum 1.4324662706373
field sqrsum 2.7263670753724e-005
field min 8.992e-006
field max 9.9611679e-005
statistic Basic.rack[8].node[9].app 	hops
field count 99668
field mean 3.9958060761729
field stddev 0.99999622211172
field sum 398254
field sqrsum 1691012
field min 3
field max 5
statistic Basic.rack[8].eps.queue[0] 	dropsum
field count 0
field mean nan
field stddev nan
field sum 0
field sqrsum 0
field min nan
field max nan
statistic Basic.rack[8].eps.queue[1] 	dropsum
field count 0
field mean nan
field stddev nan
field sum 0
field sqrsum 0
field min nan
field max nan
statistic Basic.rack[8].eps.queue[2] 	dropsum
field count 0
field mean nan
field stddev nan
field sum 0
field sqrsum 0
field min nan
field max nan
statistic Basic.rack[8].eps.queue[3] 	dropsum
field count 0
field mean nan
field stddev nan
field sum 0
field sqrsum 0
field min nan
field max nan
statistic Basic.rack[9].node[0].app 	throughput
field count 99971
field mean 49986
field stddev 28859.286217784
field sum 4997150406
field sqrsum 3.3304841454229e+014
field min 1
field max 99971
statistic Basic.rack[9].node[0].app 	"End-to-End Delay"
field count 99971
field mean 1.4393544430688e-005
field stddev 8.1452204599546e-006
field sum 1.4389370302803
field sqrsum 2.7343875373939e-005
field min 8.992e-006
field max 0.000116881589
statistic Basic.rack[9].node[0].app 	hops
field count 99971
field mean 3.994328355223
field stddev 0.99998891750091
field sum 399317
field sqrsum 1694971
field min 3
field max 5
statistic Basic.rack[9].node[1].app 	throughput
field count 99737
field mean 49869
field stddev 28791.736236288
field sum 4973784453
field sqrsum 3.3071521792072e+014
field min 1
field max 99737
statistic Basic.rack[9].node[1].app 	"End-to-End Delay"
field count 99737
field mean 1.4384635372583e-005
field stddev 8.1577098039723e-006
field sum 1.4346803781553
field sqrsum 2.7274608308026e-005
field min 8.992e-006
field max 0.000112783208
statistic Basic.rack[9].node[1].app 	hops
field count 99737
field mean 3.9971424847349
field stddev 1.0000009304968
field sum 398663
field sqrsum 1693249
field min 3
field max 5
statistic Basic.rack[9].node[2].app 	throughput
field count 99546
field mean 49773.5
field stddev 28736.59928558
field sum 4954752831
field sqrsum 3.2881886846076e+014
field min 1
field max 99546
statistic Basic.rack[9].node[2].app 	"End-to-End Delay"
field count 99546
field mean 1.4352880332272e-005
field stddev 8.1421849102866e-006
field sum 1.4287718255563
field sqrsum 2.7106344240985e-005
field min 8.992e-006
field max 0.00012212084
statistic Basic.rack[9].node[2].app 	hops
field count 99546
field mean 4.0032547766862
field stddev 0.9999997260151
field sum 398508
field sqrsum 1694874
field min 3
field max 5
statistic Basic.rack[9].node[3].app 	throughput
field count 99525
field mean 49763
field stddev 28730.537107753
field sum 4952662575
field sqrsum 3.2861081273878e+014
field min 1
field max 99525
statistic Basic.rack[9].node[3].app 	"End-to-End Delay"
field count 99525
field mean 1.4405773523842e-005
field stddev 8.2104246461714e-006
field sum 1.4337346099603
field sqrsum 2.7363075700741e-005
field min 8.992e-006
field max 0.000110756105
statistic Basic.rack[9].node[3].app 	hops
field count 99525
field mean 4.0005526249686
field stddev 1.0000048712033
field sum 398155
field sqrsum 1692365
field min 3
field max 5
statistic Basic.rack[9].node[4].app 	throughput
field count 100315
field mean 50158
field stddev 28958.590464086
field sum 5031599770
field sqrsum 3.3649829781829e+014
field min 1
field max 100315
statistic Basic.rack[9].node[4].app 	"End-to-End Delay"
field count 100315
field mean 1.4396555297875e-005
field stddev 8.1655678360437e-006
field sum 1.4441904447063
field sqrsum 2.7479953826779e-005
field min 8.992e-006
field max 0.000131475366
statistic Basic.rack[9].node[4].app 	hops
field count 100315
field mean 3.9955639734835
field stddev 0.99999514507365
field sum 400815
field sqrsum 1701795
field min 3
field max 5
statistic Basic.rack[9].node[5].app 	throughput
field count 99839
field mean 49920
field stddev 28821.181100017
field sum 4983962880
field sqrsum 3.3173090797184e+014
field min 1
field max 99839
statistic Basic.rack[9].node[5].app 	"End-to-End Delay"
field count 99839
field mean 1.4414331667498e-005
field stddev 8.1883910733126e-006
field sum 1.4391124593513
field sqrsum 2.7437957073633e-005
field min 8.992e-006
field max 0.000117569979
statistic Basic.rack[9].node[5].app 	hops
field count 99839
field mean 4.0035557247168
field stddev 0.99999868645983
field sum 399711
field sqrsum 1700103
field min 3
field max 5
statistic Basic.rack[9].node[6].app 	throughput
field count 100595
field mean 50298
field stddev 29039.419501774
field sum 5059727310
field sqrsum 3.3932386574207e+014
field min 1
field max 100595
statistic Basic.rack[9].node[6].app 	"End-to-End Delay"
field count 100595
field mean 1.4416351713657e-005
field stddev 8.1392428237071e-006
field sum 1.4502129006353
field sqrsum 2.7570857490171e-005
field min 8.992e-006
field max 0.000110237
statistic Basic.rack[9].node[6].app 	hops
field count 100595
field mean 3.9984989313584
field stddev 1.0000038438533
field sum 402229
field sqrsum 1708907
field min 3
field max 5
statistic Basic.rack[9].node[7].app 	throughput
field count 99642
field mean 49821.5
field stddev 28764.312098502
field sum 4964313903
field sqrsum 3.2977109871978e+014
field min 1
field max 99642
statistic Basic.rack[9].node[7].app 	"End-to-End Delay"
field count 99642
field mean 1.4381732167393e-005
field stddev 8.2023317409316e-006
field sum 1.4330245566233
field sqrsum 2.7313047071173e-005
field min 8.992e-006
field max 0.00011941977
statistic Basic.rack[9].node[7].app 	hops
field count 99642
field mean 3.9972300836996
field stddev 1.0000011817573
field sum 398292
field sqrsum 1691706
field min 3
field max 5
statistic Basic.rack[9].node[8].app 	throughput
field count 99813
field mean 49907
field stddev 28813.675546518
field sum 4981367391
field sqrsum 3.3147180938772e+014
field min 1
field max 99813
statistic Basic.rack[9].node[8].app 	"End-to-End Delay"
field count 99813
field mean 1.4401576223992e-005
field stddev 8.2151986740061e-006
field sum 1.4374645276453
field sqrsum 2.7438015865528e-005
field min 8.992e-006
field max 0.000118342903
statistic Basic.rack[9].node[8].app 	hops
field count 99813
field mean 3.9971646979852
field stddev 1.0000009899082
field sum 398969
field sqrsum 1694557
field min 3
field max 5
statistic Basic.rack[9].node[9].app 	throughput
field count 100334
field mean 50167.5
field stddev 28964.075291644
field sum 5033505945
field sqrsum 3.3668953482574e+014
field min 1
field max 100334
statistic Basic.rack[9].node[9].app 	"End-to-End Delay"
field count 100334
field mean 1.4390393383403e-005
field stddev 8.1849533945492e-006
field sum 1.4438457297303
field sqrsum 2.7499163065729e-005
field min 8.992e-006
field max 0.000111647669
statistic Basic.rack[9].node[9].app 	hops
field count 100334
field mean 4.0029501465107
field stddev 1.0000006316795
field sum 401632
field sqrsum 1708046
field min 3
field max 5
statistic Basic.rack[9].eps.queue[0] 	dropsum
field count 0
field mean nan
field stddev nan
field sum 0
field sqrsum 0
field min nan
field max nan
statistic Basic.rack[9].eps.queue[1] 	dropsum
field count 0
field mean nan
field stddev nan
field sum 0
field sqrsum 0
field min nan
field max nan
statistic Basic.rack[9].eps.queue[2] 	dropsum
field count 0
field mean nan
field stddev nan
field sum 0
field sqrsum 0
field min nan
field max nan
statistic Basic.rack[9].eps.queue[3] 	dropsum
field count 0
field mean nan
field stddev nan
field sum 0
field sqrsum 0
field min nan
field max nan
statistic Basic.rack[10].node[0].app 	throughput
field count 100108
field mean 50054.5
field stddev 28898.834711224
field sum 5010855886
field sqrsum 3.3441951097575e+014
field min 1
field max 100108
statistic Basic.rack[10].node[0].app 	"End-to-End Delay"
field count 100108
field mean 8.8551925007908e-006
field stddev 5.9644705950957e-006
field sum 0.88647561086917
field sqrsum 1.1411209644793e-005
field min 8.496e-007
field max 6.9502727e-005
statistic Basic.rack[10].node[0].app 	hops
field count 100108
field mean 4.2528768929556
field stddev 0.82825128695363
field sum 425747
field sqrsum 1879323
field min 3
field max 5
statistic Basic.rack[10].node[1].app 	throughput
field count 99845
field mean 49923
field stddev 28822.913150825
field sum 4984561935
field sqrsum 3.317907191207e+014
field min 1
field max 99845
statistic Basic.rack[10].node[1].app 	"End-to-End Delay"
field count 99845
field mean 8.8636765469696e-006
field stddev 5.9848512593593e-006
field sum 0.88499378483218
field sqrsum 1.1420555437139e-005
field min 8.496e-007
field max 6.1656421e-005
statistic Basic.rack[10].node[1].app 	hops
field count 99845
field mean 4.2512093745305
field stddev 0.82857870552374
field sum 424462
field sqrsum 1873024
field min 3
field max 5
statistic Basic.rack[10].node[2].app 	throughput
field count 100305
field mean 50153
field stddev 28955.70371274
field sum 5030596665
field sqrsum 3.363976758541e+014
field min 1
field max 100305
statistic Basic.rack[10].node[2].app 	"End-to-End Delay"
field count 100305
field mean 8.8809186113471e-006
field stddev 6.0004481709435e-006
field sum 0.89080054131117
field sqrsum 1.1522610566535e-005
field min 8.496e-007
field max 5.9332363e-005
statistic Basic.rack[10].node[2].app 	hops
field count 100305
field mean 4.251961517372
field stddev 0.82850771487801
field sum 426493
field sqrsum 1882283
field min 3
field max 5
statistic Basic.rack[10].node[3].app 	throughput
field count 99795
field mean 49898
field stddev 28808.479394095
field sum 4979570910
field sqrsum 3.3129251249927e+014
field min 1
field max 99795
statistic Basic.rack[10].node[3].app 	"End-to-End Delay"
field count 99795
field mean 8.8675553126326e-006
field stddev 6.0223789321235e-006
field sum 0.88493768242417
field sqrsum 1.1466667223449e-005
field min 8.496e-007
field max 7.4802621e-005
statistic Basic.rack[10].node[3].app 	hops
field count 99795
field mean 4.2439701387845
field stddev 0.83016280396629
field sum 423527
field sqrsum 1866211
field min 3
field max 5
statistic Basic.rack[10].node[4].app 	throughput
field count 99765
field mean 49883
field stddev 28799.819140057
field sum 4976577495
field sqrsum 3.3099382805162e+014
field min 1
field max 99765
statistic Basic.rack[10].node[4].app 	"End-to-End Delay"
field count 99765
field mean 8.8409317061912e-006
field stddev 6.0037116746793e-006
field sum 0.88201555166817
field sqrsum 1.1393788128651e-005
field min 8.496e-007
field max 7.5063875e-005
statistic Basic.rack[10].node[4].app 	hops
field count 99765
field mean 4.2441036435624
field stddev 0.82907516097907
field sum 423413
field sqrsum 1865583
field min 3
field max 5
statistic Basic.rack[10].node[5].app 	throughput
field count 99552
field mean 49776.5
field stddev 28738.331336388
field sum 4955350128
field sqrsum 3.2887832907848e+014
field min 1
field max 99552
statistic Basic.rack[10].node[5].app 	"End-to-End Delay"
field count 99552
field mean 8.8820910544957e-006
field stddev 5.9785009034901e-006
field sum 0.88422992865716
field sqrsum 1.1412009674346e-005
field min 8.496e-007
field max 7.8013846e-005
statistic Basic.rack[10].node[5].app 	hops
field count 99552
field mean 4.2516172452588
field stddev 0.82930717801728
field sum 423257
field sqrsum 1867993
field min 3
field max 5
statistic Basic.rack[10].node[6].app 	throughput
field count 100127
field mean 50064
field stddev 28904.319538782
field sum 5012758128
field sqrsum 3.3460995964088e+014
field min 1
field max 100127
statistic Basic.rack[10].node[6].app 	"End-to-End Delay"
field count 100127
field mean 8.8548584032596e-006
field stddev 5.9967341113375e-006
field sum 0.88661040734317
field sqrsum 1.1451422679408e-005
field min 8.496e-007
field max 7.1199387e-005
statistic Basic.rack[10].node[6].app 	hops
field count 100127
field mean 4.2541472330141
field stddev 0.82701594292305
field sum 425955
field sqrsum 1880557
field min 3
field max 5
statistic Basic.rack[10].node[7].app 	throughput
field count 100418
field mean 50209.5
field stddev 28988.32400295
field sum 5041937571
field sqrsum 3.3753587198231e+014
field min 1
field max 100418
statistic Basic.rack[10].node[7].app 	"End-to-End Delay"
field count 100418
field mean 8.8573519392657e-006
field stddev 5.9944747271166e-006
field sum 0.88943756703718
field sqrsum 1.1486418648921e-005
field min 8.496e-007
field max 5.8669593e-005
statistic Basic.rack[10].node[7].app 	hops
field count 100418
field mean 4.252942699516
field stddev 0.82723572476356
field sum 427072
field sqrsum 1885030
field min 3
field max 5
statistic Basic.rack[10].node[8].app 	throughput
field count 99699
field mean 49850
field stddev 28780.766581174
field sum 4969995150
field sqrsum 3.3033735430495e+014
field min 1
field max 99699
statistic Basic.rack[10].node[8].app 	"End-to-End Delay"
field count 99699
field mean 8.8920376055444e-006
field stddev 5.9780995619114e-006
field sum 0.88652725723517
field sqrsum 1.1446008369227e-005
field min 8.496e-007
field max 6.9384157e-005
statistic Basic.rack[10].node[8].app 	hops
field count 99699
field mean 4.2491198507508
field stddev 0.83054156822196
field sum 423633
field sqrsum 1868839
field min 3
field max 5
statistic Basic.rack[10].node[9].app 	throughput
field count 100328
field mean 50164.5
field stddev 28962.343240836
field sum 5032903956
field sqrsum 3.3662913636636e+014
field min 1
field max 100328
statistic Basic.rack[10].node[9].app 	"End-to-End Delay"
field count 100328
field mean 8.8466879122198e-006
field stddev 5.9885706821691e-006
field sum 0.88757050485718
field sqrsum 1.1450084332169e-005
field min 8.496e-007
field max 8.4902964e-005
statistic Basic.rack[10].node[9].app 	hops
field count 100328
field mean 4.2468602982218
field stddev 0.82940979590681
field sum 426079
field sqrsum 1878515
field min 3
field max 5
statistic Basic.rack[10].eps.queue[0] 	dropsum
field count 0
field mean nan
field stddev nan
field sum 0
field sqrsum 0
field min nan
field max nan
statistic Basic.rack[10].eps.queue[1] 	dropsum
field count 0
field mean nan
field stddev nan
field sum 0
field sqrsum 0
field min nan
field max nan
statistic Basic.rack[10].eps.queue[2] 	dropsum
field count 0
field mean nan
field stddev nan
field sum 0
field sqrsum 0
field min nan
field max nan
statistic Basic.rack[10].eps.queue[3] 	dropsum
field count 0
field mean nan
field stddev nan
field sum 0
field sqrsum 0
field min nan
field max nan
statistic Basic.rack[11].node[0].app 	throughput
field count 100588
field mean 50294.5
field stddev 29037.398775832
field sum 5059023166
field sqrsum 3.3925303448879e+014
field min 1
field max 100588
statistic Basic.rack[11].node[0].app 	"End-to-End Delay"
field count 100588
field mean 8.8731978639817e-006
field stddev 5.9783120314182e-006
field sum 0.89253722674219
field sqrsum 1.1514660394408e-005
field min 8.496e-007
field max 5.5324928e-005
statistic Basic.rack[11].node[0].app 	hops
field count 100588
field mean 4.2487175408597
field stddev 0.82986344247837
field sum 427370
field sqrsum 1885046
field min 3
field max 5
statistic Basic.rack[11].node[1].app 	throughput
field count 99667
field mean 49834
field stddev 28771.528976866
field sum 4966805278
field sqrsum 3.3001937669671e+014
field min 1
field max 99667
statistic Basic.rack[11].node[1].app 	"End-to-End Delay"
field count 99667
field mean 8.9032994088632e-006
field stddev 5.981928291687e-006
field sum 0.88736514218317
field sqrsum 1.1466872476861e-005
field min 8.496e-007
field max 6.3123742e-005
statistic Basic.rack[11].node[1].app 	hops
field count 99667
field mean 4.2485476637202
field stddev 0.83104542514156
field sum 423440
field sqrsum 1867838
field min 3
field max 5
statistic Basic.rack[11].node[2].app 	throughput
field count 100010
field mean 50005.5
field stddev 28870.544548034
field sum 5001050055
[...]
field stddev 28817.428323268
field sum 4982665051
field sqrsum 3.316013418091e+014
field min 1
field max 99826
statistic Basic.rack[13].node[2].app 	"End-to-End Delay"
field count 99826
field mean 1.4393299232328e-005
field stddev 8.1570403600102e-006
field sum 1.4368254891664
field sqrsum 2.7322745924889e-005
field min 8.992e-006
field max 9.6865997e-005
statistic Basic.rack[13].node[2].app 	hops
field count 99826
field mean 4.0096367679763
field stddev 0.99995857379361
field sum 400266
field sqrsum 1704738
field min 3
field max 5
statistic Basic.rack[13].node[3].app 	throughput
field count 99727
field mean 49864
field stddev 28788.849484942
field sum 4972787128
field sqrsum 3.3061575220508e+014
field min 1
field max 99727
statistic Basic.rack[13].node[3].app 	"End-to-End Delay"
field count 99727
field mean 1.4407116149843e-005
field stddev 8.2625053124332e-006
field sum 1.4367784722753
field sqrsum 2.7508028031097e-005
field min 8.992e-006
field max 0.000110836511
statistic Basic.rack[13].node[3].app 	hops
field count 99727
field mean 4.0014339145868
field stddev 1.0000039856639
field sum 399051
field sqrsum 1696503
field min 3
field max 5
statistic Basic.rack[13].node[4].app 	throughput
field count 100268
field mean 50134.5
field stddev 28945.02273276
field sum 5026886046
field sqrsum 3.3602554900223e+014
field min 1
field max 100268
statistic Basic.rack[13].node[4].app 	"End-to-End Delay"
field count 100268
field mean 1.4370194823816e-005
field stddev 8.1581223736651e-006
field sum 1.4408706945943
field sqrsum 2.7378858838114e-005
field min 8.992e-006
field max 9.6753256e-005
statistic Basic.rack[13].node[4].app 	hops
field count 100268
field mean 3.9969282323373
field stddev 1.0000002687602
field sum 400764
field sqrsum 1702092
field min 3
field max 5
statistic Basic.rack[13].node[5].app 	throughput
field count 100064
field mean 50032.5
field stddev 28886.133005302
field sum 5006452080
field sqrsum 3.3397874943944e+014
field min 1
field max 100064
statistic Basic.rack[13].node[5].app 	"End-to-End Delay"
field count 100064
field mean 1.4359706085009e-005
field stddev 8.1872582277912e-006
field sum 1.4368896296903
field sqrsum 2.7340655453233e-005
field min 8.992e-006
field max 0.000115820304
statistic Basic.rack[13].node[5].app 	hops
field count 100064
field mean 3.9954828909498
field stddev 0.99999479459939
field sum 399804
field sqrsum 1697472
field min 3
field max 5
statistic Basic.rack[13].node[6].app 	throughput
field count 100014
field mean 50007.5
field stddev 28871.699248572
field sum 5001450105
field sqrsum 3.3347835435102e+014
field min 1
field max 100014
statistic Basic.rack[13].node[6].app 	"End-to-End Delay"
field count 100014
field mean 1.4403089862583e-005
field stddev 8.2399567049689e-006
field sum 1.4405106295163
field sqrsum 2.753837535443e-005
field min 8.992e-006
field max 0.000117344285
statistic Basic.rack[13].node[6].app 	hops
field count 100014
field mean 3.9993600895875
field stddev 1.0000047945939
field sum 399992
field sqrsum 1699726
field min 3
field max 5
statistic Basic.rack[13].node[7].app 	throughput
field count 100472
field mean 50236.5
field stddev 29003.912460218
field sum 5047361628
field sqrsum 3.3808069411282e+014
field min 1
field max 100472
statistic Basic.rack[13].node[7].app 	"End-to-End Delay"
field count 100472
field mean 1.4349373742668e-005
field stddev 8.1208345400449e-006
field sum 1.4417102786733
field sqrsum 2.7313496466166e-005
field min 8.992e-006
field max 0.000101101733
statistic Basic.rack[13].node[7].app 	hops
field count 100472
field mean 3.9949637710009
field stddev 0.99999229460322
field sum 401382
field sqrsum 1703976
field min 3
field max 5
statistic Basic.rack[13].node[8].app 	throughput
field count 99886
field mean 49943.5
field stddev 28834.748831344
field sum 4988656441
field sqrsum 3.3219962106263e+014
field min 1
field max 99886
statistic Basic.rack[13].node[8].app 	"End-to-End Delay"
field count 99886
field mean 1.4370131309426e-005
field stddev 8.2287937051786e-006
field sum 1.4353749359733
field sqrsum 2.7390043892162e-005
field min 8.992e-006
field max 0.000117177042
statistic Basic.rack[13].node[8].app 	hops
field count 99886
field mean 3.9989588130469
field stddev 1.0000044637061
field sum 399440
field sqrsum 1697230
field min 3
field max 5
statistic Basic.rack[13].node[9].app 	throughput
field count 100112
field mean 50056.5
field stddev 28899.989411763
field sum 5011256328
field sqrsum 3.344595994246e+014
field min 1
field max 100112
statistic Basic.rack[13].node[9].app 	"End-to-End Delay"
field count 100112
field mean 1.4376098959079e-005
field stddev 8.20488133151e-006
field sum 1.4392200189913
field sqrsum 2.7429849711944e-005
field min 8.992e-006
field max 0.000105395367
statistic Basic.rack[13].node[9].app 	hops
field count 100112
field mean 4.0020377177561
field stddev 1.0000029182843
field sum 400652
field sqrsum 1703536
field min 3
field max 5
statistic Basic.rack[13].eps.queue[0] 	dropsum
field count 0
field mean nan
field stddev nan
field sum 0
field sqrsum 0
field min nan
field max nan
statistic Basic.rack[13].eps.queue[1] 	dropsum
field count 0
field mean nan
field stddev nan
field sum 0
field sqrsum 0
field min nan
field max nan
statistic Basic.rack[13].eps.queue[2] 	dropsum
field count 0
field mean nan
field stddev nan
field sum 0
field sqrsum 0
field min nan
field max nan
statistic Basic.rack[13].eps.queue[3] 	dropsum
field count 0
field mean nan
field stddev nan
field sum 0
field sqrsum 0
field min nan
field max nan
statistic Basic.rack[14].node[0].app 	throughput
field count 99756
field mean 49878.5
field stddev 28797.221063846
field sum 4975679646
field sqrsum 3.3090425773747e+014
field min 1
field max 99756
statistic Basic.rack[14].node[0].app 	"End-to-End Delay"
field count 99756
field mean 8.873005887006e-006
field stddev 6.0074237992952e-006
field sum 0.88513557526417
field sqrsum 1.1453885401079e-005
field min 8.496e-007
field max 6.4548618e-005
statistic Basic.rack[14].node[0].app 	hops
field count 99756
field mean 4.2469224908777
field stddev 0.82937525715087
field sum 423656
field sqrsum 1867852
field min 3
field max 5
statistic Basic.rack[14].node[1].app 	throughput
field count 100454
field mean 50227.5
field stddev 28998.716307795
field sum 5045553285
field sqrsum 3.3789902164536e+014
field min 1
field max 100454
statistic Basic.rack[14].node[1].app 	"End-to-End Delay"
field count 100454
field mean 8.8944985491288e-006
field stddev 5.9670121365745e-006
field sum 0.89348795725419
field sqrsum 1.1523779894193e-005
field min 8.496e-007
field max 5.8199937e-005
statistic Basic.rack[14].node[1].app 	hops
field count 100454
field mean 4.2503334859737
field stddev 0.83040644515057
field sum 426963
field sqrsum 1884005
field min 3
field max 5
statistic Basic.rack[14].node[2].app 	throughput
field count 100348
field mean 50174.5
field stddev 28968.116743528
field sum 5034910726
field sqrsum 3.3683049265867e+014
field min 1
field max 100348
statistic Basic.rack[14].node[2].app 	"End-to-End Delay"
field count 100348
field mean 8.8743758304219e-006
field stddev 5.9838673062935e-006
field sum 0.89052586583118
field sqrsum 1.1495952927805e-005
field min 8.496e-007
field max 6.509633e-005
statistic Basic.rack[14].node[2].app 	hops
field count 100348
field mean 4.2506876071272
field stddev 0.82916304857848
field sum 426548
field sqrsum 1882112
field min 3
field max 5
statistic Basic.rack[14].node[3].app 	throughput
field count 100186
field mean 50093.5
field stddev 28921.351371723
field sum 5018667391
field sqrsum 3.3520181371228e+014
field min 1
field max 100186
statistic Basic.rack[14].node[3].app 	"End-to-End Delay"
field count 100186
field mean 8.8495968319044e-006
field stddev 5.9579778271801e-006
field sum 0.88660570820117
field sqrsum 1.1402420082823e-005
field min 8.496e-007
field max 6.2987117e-005
statistic Basic.rack[14].node[3].app 	hops
field count 100186
field mean 4.2487473299663
field stddev 0.82904050432241
field sum 425665
field sqrsum 1877401
field min 3
field max 5
statistic Basic.rack[14].node[4].app 	throughput
field count 99893
field mean 49947
field stddev 28836.769557286
field sum 4989355671
field sqrsum 3.3226946714736e+014
field min 1
field max 99893
statistic Basic.rack[14].node[4].app 	"End-to-End Delay"
field count 99893
field mean 8.885062644381e-006
field stddev 5.9791374356792e-006
field sum 0.88755556273516
field sqrsum 1.1457134213621e-005
field min 8.496e-007
field max 6.1794834e-005
statistic Basic.rack[14].node[4].app 	hops
field count 99893
field mean 4.2502477651087
field stddev 0.82942512947654
field sum 424570
field sqrsum 1873248
field min 3
field max 5
statistic Basic.rack[14].node[5].app 	throughput
field count 99565
field mean 49783
field stddev 28742.084113137
field sum 4956644395
field sqrsum 3.2900718500692e+014
field min 1
field max 99565
statistic Basic.rack[14].node[5].app 	"End-to-End Delay"
field count 99565
field mean 8.8945062625035e-006
field stddev 6.0059553388114e-006
field sum 0.88558151602616
field sqrsum 1.1468233119636e-005
field min 8.496e-007
field max 6.5884071e-005
statistic Basic.rack[14].node[5].app 	hops
field count 99565
field mean 4.2464520664892
field stddev 0.83018705718804
field sum 422798
field sqrsum 1864012
field min 3
field max 5
statistic Basic.rack[14].node[6].app 	throughput
field count 100432
field mean 50216.5
field stddev 28992.365454834
field sum 5043343528
field sqrsum 3.3767706591724e+014
field min 1
field max 100432
statistic Basic.rack[14].node[6].app 	"End-to-End Delay"
field count 100432
field mean 8.8645845883003e-006
field stddev 5.9947044066513e-006
field sum 0.89028795937218
field sqrsum 1.150116963939e-005
field min 8.496e-007
field max 5.902206e-005
statistic Basic.rack[14].node[6].app 	hops
field count 100432
field mean 4.2502090967022
field stddev 0.82851458354119
field sum 426857
field sqrsum 1883171
field min 3
field max 5
statistic Basic.rack[14].node[7].app 	throughput
field count 99826
field mean 49913.5
field stddev 28817.428323268
field sum 4982665051
field sqrsum 3.316013418091e+014
field min 1
field max 99826
statistic Basic.rack[14].node[7].app 	"End-to-End Delay"
field count 99826
field mean 8.8200089509763e-006
field stddev 5.9434564396409e-006
field sum 0.88046621354016
field sqrsum 1.1292005511419e-005
field min 8.496e-007
field max 5.9863989e-005
statistic Basic.rack[14].node[7].app 	hops
field count 99826
field mean 4.2473303548174
field stddev 0.82877992777986
field sum 423994
field sqrsum 1869410
field min 3
field max 5
statistic Basic.rack[14].node[8].app 	throughput
field count 100307
field mean 50154
field stddev 28956.281063009
field sum 5030797278
field sqrsum 3.3641779864199e+014
field min 1
field max 100307
statistic Basic.rack[14].node[8].app 	"End-to-End Delay"
field count 100307
field mean 8.8639901714554e-006
field stddev 5.9625305166958e-006
field sum 0.88912026212817
field sqrsum 1.1447209122669e-005
field min 8.496e-007
field max 5.8448757e-005
statistic Basic.rack[14].node[8].app 	hops
field count 100307
field mean 4.2460247041582
field stddev 0.83044309747814
field sum 425906
field sqrsum 1877582
field min 3
field max 5
statistic Basic.rack[14].node[9].app 	throughput
field count 99857
field mean 49929
field stddev 28826.37725244
field sum 4985760153
field sqrsum 3.3191036298546e+014
field min 1
field max 99857
statistic Basic.rack[14].node[9].app 	"End-to-End Delay"
field count 99857
field mean 8.8849090547499e-006
field stddev 5.9810632409074e-006
field sum 0.88722036348016
field sqrsum 1.1455032661298e-005
field min 8.496e-007
field max 7.1537752e-005
statistic Basic.rack[14].node[9].app 	hops
field count 99857
field mean 4.2461820403177
field stddev 0.83118344301825
field sum 424011
field sqrsum 1869415
field min 3
field max 5
statistic Basic.rack[14].eps.queue[0] 	dropsum
field count 0
field mean nan
field stddev nan
field sum 0
field sqrsum 0
field min nan
field max nan
statistic Basic.rack[14].eps.queue[1] 	dropsum
field count 0
field mean nan
field stddev nan
field sum 0
field sqrsum 0
field min nan
field max nan
statistic Basic.rack[14].eps.queue[2] 	dropsum
field count 0
field mean nan
field stddev nan
field sum 0
field sqrsum 0
field min nan
field max nan
statistic Basic.rack[14].eps.queue[3] 	dropsum
field count 0
field mean nan
field stddev nan
field sum 0
field sqrsum 0
field min nan
field max nan
statistic Basic.rack[15].node[0].app 	throughput
field count 100039
field mean 50020
field stddev 28878.916126937
field sum 5003950780
field sqrsum 3.3372848937054e+014
field min 1
field max 100039
statistic Basic.rack[15].node[0].app 	"End-to-End Delay"
field count 100039
field mean 8.8635318168032e-006
field stddev 6.0070435710054e-006
field sum 0.88669885942117
field sqrsum 1.1469112012552e-005
field min 8.496e-007
field max 6.6563668e-005
statistic Basic.rack[15].node[0].app 	hops
field count 100039
field mean 4.2507622027409
field stddev 0.82805388592167
field sum 425242
field sqrsum 1876196
field min 3
field max 5
statistic Basic.rack[15].node[1].app 	throughput
field count 100168
field mean 50084.5
field stddev 28916.1552193
field sum 5016864196
field sqrsum 3.3502117414468e+014
field min 1
field max 100168
statistic Basic.rack[15].node[1].app 	"End-to-End Delay"
field count 100168
field mean 8.849068561089e-006
field stddev 5.9383198520923e-006
field sum 0.88639349962717
field sqrsum 1.1376010145205e-005
field min 8.496e-007
field max 5.7798409e-005
statistic Basic.rack[15].node[1].app 	hops
field count 100168
field mean 4.2485224822299
field stddev 0.82998938529333
field sum 425566
field sqrsum 1877030
field min 3
field max 5
statistic Basic.rack[15].node[2].app 	throughput
field count 99780
field mean 49890.5
field stddev 28804.149267076
field sum 4978074090
field sqrsum 3.3114314782483e+014
field min 1
field max 99780
statistic Basic.rack[15].node[2].app 	"End-to-End Delay"
field count 99780
field mean 8.8526168784943e-006
field stddev 6.0024093952658e-006
field sum 0.88331411213616
field sqrsum 1.1414570881947e-005
field min 8.496e-007
field max 6.2424075e-005
statistic Basic.rack[15].node[2].app 	hops
field count 99780
field mean 4.2488073762277
field stddev 0.82863051466177
field sum 423946
field sqrsum 1869776
field min 3
field max 5
statistic Basic.rack[15].node[3].app 	throughput
field count 99429
field mean 49715
field stddev 28702.824294832
field sum 4943112735
field sqrsum 3.2766081845646e+014
field min 1
field max 99429
statistic Basic.rack[15].node[3].app 	"End-to-End Delay"
field count 99429
field mean 8.8522586624842e-006
field stddev 5.9676206148999e-006
field sum 0.88017122655214
field sqrsum 1.1332382597454e-005
field min 8.496e-007
field max 6.8139847e-005
statistic Basic.rack[15].node[3].app 	hops
field count 99429
field mean 4.2482072634744
field stddev 0.82935475709625
field sum 422395
field sqrsum 1862811
field min 3
field max 5
statistic Basic.rack[15].node[4].app 	throughput
field count 99556
field mean 49778.5
field stddev 28739.486036926
field sum 4955748346
field sqrsum 3.2891797347237e+014
field min 1
field max 99556
statistic Basic.rack[15].node[4].app 	"End-to-End Delay"
field count 99556
field mean 8.8663776089453e-006
field stddev 5.9880763359195e-006
field sum 0.88270108923616
field sqrsum 1.1396110602574e-005
field min 8.496e-007
field max 5.8302985e-005
statistic Basic.rack[15].node[4].app 	hops
field count 99556
field mean 4.2461930973522
field stddev 0.83026842648994
field sum 422734
field sqrsum 1863638
field min 3
field max 5
statistic Basic.rack[15].node[5].app 	throughput
field count 100152
field mean 50076.5
field stddev 28911.536417147
field sum 5015261628
field sqrsum 3.3486066013218e+014
field min 1
field max 100152
statistic Basic.rack[15].node[5].app 	"End-to-End Delay"
field count 100152
field mean 8.8566469690488e-006
field stddev 5.9349073877841e-006
field sum 0.88701090724418
field sqrsum 1.1383573725296e-005
field min 8.496e-007
field max 6.8732045e-005
statistic Basic.rack[15].node[5].app 	hops
field count 100152
field mean 4.2500998482307
field stddev 0.82953957398001
field sum 425656
field sqrsum 1877998
field min 3
field max 5
statistic Basic.rack[15].node[6].app 	throughput
field count 99840
field mean 49920.5
field stddev 28821.469775152
field sum 4984062720
field sqrsum 3.3174087599744e+014
field min 1
field max 99840
statistic Basic.rack[15].node[6].app 	"End-to-End Delay"
field count 99840
field mean 8.8623088597172e-006
field stddev 5.9786157108991e-006
field sum 0.88481291655417
field sqrsum 1.1410115172254e-005
field min 8.496e-007
field max 6.0821011e-005
statistic Basic.rack[15].node[6].app 	hops
field count 99840
field mean 4.2530148237179
field stddev 0.82806998630743
field sum 424621
field sqrsum 1874379
field min 3
field max 5
statistic Basic.rack[15].node[7].app 	throughput
field count 99343
field mean 49672
field stddev 28677.998233257
field sum 4934565496
field sqrsum 3.2681133823458e+014
field min 1
field max 99343
statistic Basic.rack[15].node[7].app 	"End-to-End Delay"
field count 99343
field mean 8.8625587531296e-006
field stddev 5.9831351220561e-006
field sum 0.88043317421215
field sqrsum 1.1359126301463e-005
field min 8.496e-007
field max 5.7461824e-005
statistic Basic.rack[15].node[7].app 	hops
field count 99343
field mean 4.2512809156156
field stddev 0.82837064614649
field sum 422335
field sqrsum 1863633
field min 3
field max 5
statistic Basic.rack[15].node[8].app 	throughput
field count 99994
field mean 49997.5
field stddev 28865.92574588
field sum 4999450015
field sqrsum 3.3327833634994e+014
field min 1
field max 99994
statistic Basic.rack[15].node[8].app 	"End-to-End Delay"
field count 99994
field mean 8.837797686943e-006
field stddev 5.9612122670334e-006
field sum 0.88372674190817
field sqrsum 1.1363554572427e-005
field min 8.496e-007
field max 7.0613179e-005
statistic Basic.rack[15].node[8].app 	hops
field count 99994
field mean 4.2476848610917
field stddev 0.82961079322668
field sum 424743
field sqrsum 1872995
field min 3
field max 5
statistic Basic.rack[15].node[9].app 	throughput
field count 99774
field mean 49887.5
field stddev 28802.417216268
field sum 4977475425
field sqrsum 3.3108341452778e+014
field min 1
field max 99774
statistic Basic.rack[15].node[9].app 	"End-to-End Delay"
field count 99774
field mean 8.8567198225906e-006
field stddev 5.9444229114101e-006
field sum 0.88367036357916
field sqrsum 1.1352015891546e-005
field min 8.496e-007
field max 6.7054536e-005
statistic Basic.rack[15].node[9].app 	hops
field count 99774
field mean 4.251959428308
field stddev 0.82913839454046
field sum 424235
field sqrsum 1872421
field min 3
field max 5
statistic Basic.rack[15].eps.queue[0] 	dropsum
field count 0
field mean nan
field stddev nan
field sum 0
field sqrsum 0
field min nan
field max nan
statistic Basic.rack[15].eps.queue[1] 	dropsum
field count 0
field mean nan
field stddev nan
field sum 0
field sqrsum 0
field min nan
field max nan
statistic Basic.rack[15].eps.queue[2] 	dropsum
field count 0
field mean nan
field stddev nan
field sum 0
field sqrsum 0
field min nan
field max nan
statistic Basic.rack[15].eps.queue[3] 	dropsum
field count 0
field mean nan
field stddev nan
field sum 0
field sqrsum 0
field min nan
field max nan
