version 2
run Basic-14-20180510-16:08:25-20588
attr configname Basic
attr datetime 20180510-16:08:25
attr experiment Basic
attr inifile omnetpp.ini
attr iterationvars "$0=exponential(0.5 ms), $1=7, $2=4"
attr iterationvarsf exponential(0.5_ms),7,4-
attr measurement "$0=exponential(0.5 ms), $1=7, $2=4"
attr network Networks.Basic
attr processid 20588
attr repetition 0
attr replication #0
attr resultdir results
attr runnumber 14
attr seedset 14
param **.frameCapacity 50
param **.packetLength "1024 bytes"
param **.pattern 7
param **.sendIaTime "exponential(0.5 ms)"
param **.tp 4

statistic Basic.rack[0].node[0].app 	throughput
field count 20122
field mean 10061.5
field stddev 5808.8653940909
field sum 202457503
field sqrsum 2715967402745
field min 1
field max 20122
statistic Basic.rack[0].node[0].app 	"End-to-End Delay"
field count 20122
field mean 9.6009023760578e-006
field stddev 6.7925923758554e-006
field sum 0.19318935761104
field sqrsum 2.7831612428608e-006
field min 4e-007
field max 4.0914319e-005
statistic Basic.rack[0].node[0].app 	hops
field count 20122
field mean 2.9993539409601
field stddev 0.71167783703867
field sum 60353
field sqrsum 191211
field min 2
field max 4
statistic Basic.rack[0].node[1].app 	throughput
field count 19944
field mean 9972.5
field stddev 5757.481220117
field sum 198891540
field sqrsum 2644528213020
field min 1
field max 19944
statistic Basic.rack[0].node[1].app 	"End-to-End Delay"
field count 19944
field mean 9.5348572720134e-006
field stddev 6.7337934936694e-006
field sum 0.19016319343303
field sqrsum 2.7174737975175e-006
field min 4e-007
field max 4.5396394e-005
statistic Basic.rack[0].node[1].app 	hops
field count 19944
field mean 2.9941335740072
field stddev 0.70890615954837
field sum 59715
field sqrsum 188817
field min 2
field max 4
statistic Basic.rack[0].node[2].app 	throughput
field count 20021
field mean 10011
field stddev 5779.7092054878
field sum 200430231
field sqrsum 2675275913311
field min 1
field max 20021
statistic Basic.rack[0].node[2].app 	"End-to-End Delay"
field count 20021
field mean 9.542175908298e-006
field stddev 6.7065887803495e-006
field sum 0.19104390386003
field sqrsum 2.723440764876e-006
field min 4e-007
field max 4.7779139e-005
statistic Basic.rack[0].node[2].app 	hops
field count 20021
field mean 2.9959542480396
field stddev 0.70607016621929
field sum 59982
field sqrsum 189684
field min 2
field max 4
statistic Basic.rack[0].node[3].app 	throughput
field count 19941
field mean 9971
field stddev 5756.6151947129
field sum 198831711
field sqrsum 2643335043271
field min 1
field max 19941
statistic Basic.rack[0].node[3].app 	"End-to-End Delay"
field count 19941
field mean 9.5778889349599e-006
field stddev 6.7223503087079e-006
field sum 0.19099268325203
field sqrsum 2.7303951814173e-006
field min 4e-007
field max 4.1789083e-005
statistic Basic.rack[0].node[3].app 	hops
field count 19941
field mean 2.9973923073066
field stddev 0.70596627763262
field sum 59771
field sqrsum 189095
field min 2
field max 4
statistic Basic.rack[0].node[4].app 	throughput
field count 19993
field mean 9997
field stddev 5771.6263017166
field sum 199870021
field sqrsum 2664067509909
field min 1
field max 19993
statistic Basic.rack[0].node[4].app 	"End-to-End Delay"
field count 19993
field mean 9.6205572463379e-006
field stddev 6.7042996612284e-006
field sum 0.19234380102603
field sqrsum 2.7490476466285e-006
field min 4e-007
field max 4.3068861e-005
statistic Basic.rack[0].node[4].app 	hops
field count 19993
field mean 3.003951382984
field stddev 0.70465098115259
field sum 60058
field sqrsum 190338
field min 2
field max 4
statistic Basic.rack[0].node[5].app 	throughput
field count 19956
field mean 9978.5
field stddev 5760.9453217332
field sum 199130946
field sqrsum 2649304482566
field min 1
field max 19956
statistic Basic.rack[0].node[5].app 	"End-to-End Delay"
field count 19956
field mean 9.6304375282139e-006
field stddev 6.7393413543973e-006
field sum 0.19218501131304
field sqrsum 2.757156340646e-006
field min 4e-007
field max 4.9373947e-005
statistic Basic.rack[0].node[5].app 	hops
field count 19956
field mean 3.0038584886751
field stddev 0.70686588432322
field sum 59945
field sqrsum 190037
field min 2
field max 4
statistic Basic.rack[0].node[6].app 	throughput
field count 19932
field mean 9966.5
field stddev 5754.0171185008
field sum 198652278
field sqrsum 2639757687490
field min 1
field max 19932
statistic Basic.rack[0].node[6].app 	"End-to-End Delay"
field count 19932
field mean 9.5833165410915e-006
field stddev 6.7262957178017e-006
field sum 0.19101466529704
field sqrsum 2.7322933124667e-006
field min 4e-007
field max 3.9545098e-005
statistic Basic.rack[0].node[6].app 	hops
field count 19932
field mean 2.9987959060807
field stddev 0.70449331256015
field sum 59772
field sqrsum 189136
field min 2
field max 4
statistic Basic.rack[0].node[7].app 	throughput
field count 20161
field mean 10081
field stddev 5820.1237243436
field sum 203243041
field sqrsum 2731789714081
field min 1
field max 20161
statistic Basic.rack[0].node[7].app 	"End-to-End Delay"
field count 20161
field mean 9.6009600857614e-006
field stddev 6.714551621912e-006
field sum 0.19356495628904
field sqrsum 2.7673271215569e-006
field min 4e-007
field max 4.2142037e-005
statistic Basic.rack[0].node[7].app 	hops
field count 20161
field mean 3.0025296364268
field stddev 0.70853887033872
field sum 60534
field sqrsum 191876
field min 2
field max 4
statistic Basic.rack[0].node[8].app 	throughput
field count 19960
field mean 9980.5
field stddev 5762.100022272
field sum 199210780
field sqrsum 2650897849460
field min 1
field max 19960
statistic Basic.rack[0].node[8].app 	"End-to-End Delay"
field count 19960
field mean 9.5148076810137e-006
field stddev 6.7595788685015e-006
field sum 0.18991556131303
field sqrsum 2.7189748029495e-006
field min 4e-007
field max 4.7877851e-005
statistic Basic.rack[0].node[8].app 	hops
field count 19960
field mean 2.9917334669339
field stddev 0.71106843457958
field sum 59715
field sqrsum 188743
field min 2
field max 4
statistic Basic.rack[0].node[9].app 	throughput
field count 19978
field mean 9989.5
field stddev 5767.2961746963
field sum 199570231
field sqrsum 2658075906689
field min 1
field max 19978
statistic Basic.rack[0].node[9].app 	"End-to-End Delay"
field count 19978
field mean 9.6136318218058e-006
field stddev 6.7478759192145e-006
field sum 0.19206113653604
field sqrsum 2.7560343642806e-006
field min 4e-007
field max 4.5971077e-005
statistic Basic.rack[0].node[9].app 	hops
field count 19978
field mean 3.0009510461508
field stddev 0.7066989694733
field sum 59953
field sqrsum 189893
field min 2
field max 4
statistic Basic.rack[0].eps.queue[0] 	dropsum
field count 0
field mean nan
field stddev nan
field sum 0
field sqrsum 0
field min nan
field max nan
statistic Basic.rack[0].eps.queue[1] 	dropsum
field count 0
field mean nan
field stddev nan
field sum 0
field sqrsum 0
field min nan
field max nan
statistic Basic.rack[0].eps.queue[2] 	dropsum
field count 0
field mean nan
field stddev nan
field sum 0
field sqrsum 0
field min nan
field max nan
statistic Basic.rack[0].eps.queue[3] 	dropsum
field count 0
field mean nan
field stddev nan
field sum 0
field sqrsum 0
field min nan
field max nan
statistic Basic.rack[1].node[0].app 	throughput
field count 19927
field mean 9964
field stddev 5752.5737428274
field sum 198552628
field sqrsum 2637771662980
field min 1
field max 19927
statistic Basic.rack[1].node[0].app 	"End-to-End Delay"
field count 19927
field mean 9.5861978957714e-006
field stddev 6.7268561457864e-006
field sum 0.19102416546904
field sqrsum 2.732858781256e-006
field min 4e-007
field max 3.8806478e-005
statistic Basic.rack[1].node[0].app 	hops
field count 19927
field mean 3.0016058613941
field stddev 0.70834590429128
field sum 59813
field sqrsum 189533
field min 2
field max 4
statistic Basic.rack[1].node[1].app 	throughput
field count 19989
field mean 9995
field stddev 5770.4716011778
field sum 199790055
field sqrsum 2662468869615
field min 1
field max 19989
statistic Basic.rack[1].node[1].app 	"End-to-End Delay"
field count 19989
field mean 9.5372221057599e-006
field stddev 6.7101424883217e-006
field sum 0.19063953267203
field sqrsum 2.7181514973565e-006
field min 4e-007
field max 4.6043361e-005
statistic Basic.rack[1].node[1].app 	hops
field count 19989
field mean 2.9961979088499
field stddev 0.70829835803285
field sum 59891
field sqrsum 189473
field min 2
field max 4
statistic Basic.rack[1].node[2].app 	throughput
field count 20122
field mean 10061.5
field stddev 5808.8653940909
field sum 202457503
field sqrsum 2715967402745
field min 1
field max 20122
statistic Basic.rack[1].node[2].app 	"End-to-End Delay"
field count 20122
field mean 9.6093839098517e-006
field stddev 6.7136800476697e-006
field sum 0.19336002303404
field sqrsum 2.764994583275e-006
field min 4e-007
field max 4.1734379e-005
statistic Basic.rack[1].node[2].app 	hops
field count 20122
field mean 3.0014412086274
field stddev 0.70627897378809
field sum 60395
field sqrsum 191309
field min 2
field max 4
statistic Basic.rack[1].node[3].app 	throughput
field count 19925
field mean 9963
field stddev 5751.996392558
field sum 198512775
field sqrsum 2636977532175
field min 1
field max 19925
statistic Basic.rack[1].node[3].app 	"End-to-End Delay"
field count 19925
field mean 9.6699929706416e-006
field stddev 6.6806684835059e-006
field sum 0.19267460994003
field sqrsum 2.7523967702861e-006
field min 4e-007
field max 4.3354437e-005
statistic Basic.rack[1].node[3].app 	hops
field count 19925
field mean 3.0093851944793
field stddev 0.70202209474729
field sum 59962
field sqrsum 190268
field min 2
field max 4
statistic Basic.rack[1].node[4].app 	throughput
field count 20135
field mean 10068
field stddev 5812.6181708418
field sum 202719180
field sqrsum 2721234699260
field min 1
field max 20135
statistic Basic.rack[1].node[4].app 	"End-to-End Delay"
field count 20135
field mean 9.5575498971957e-006
field stddev 6.7092159757347e-006
field sum 0.19244126718004
field sqrsum 2.7455704131211e-006
field min 4e-007
field max 4.488534e-005
statistic Basic.rack[1].node[4].app 	hops
field count 20135
field mean 3.0004469828657
field stddev 0.70886046699932
field sum 60414
field sqrsum 191386
field min 2
field max 4
statistic Basic.rack[1].node[5].app 	throughput
field count 19978
field mean 9989.5
field stddev 5767.2961746963
field sum 199570231
field sqrsum 2658075906689
field min 1
field max 19978
statistic Basic.rack[1].node[5].app 	"End-to-End Delay"
field count 19978
field mean 9.5854702989806e-006
field stddev 6.7186427323085e-006
field sum 0.19149852563304
field sqrsum 2.7373684093583e-006
field min 4e-007
field max 4.0357298e-005
statistic Basic.rack[1].node[5].app 	hops
field count 19978
field mean 3.0007508259085
field stddev 0.70832649411565
field sum 59949
field sqrsum 189915
field min 2
field max 4
statistic Basic.rack[1].node[6].app 	throughput
field count 19948
field mean 9974.5
field stddev 5758.6359206557
field sum 198971326
field sqrsum 2646119664474
field min 1
field max 19948
statistic Basic.rack[1].node[6].app 	"End-to-End Delay"
field count 19948
field mean 9.5577997289971e-006
field stddev 6.7381732834749e-006
field sum 0.19065898899403
field sqrsum 2.7279336594032e-006
field min 4e-007
field max 4.1964961e-005
statistic Basic.rack[1].node[6].app 	hops
field count 19948
field mean 2.9952376178063
field stddev 0.70856039399561
field sum 59749
field sqrsum 188977
field min 2
field max 4
statistic Basic.rack[1].node[7].app 	throughput
field count 19862
field mean 9931.5
field stddev 5733.8098590728
field sum 197259453
field sqrsum 2612043923475
field min 1
field max 19862
statistic Basic.rack[1].node[7].app 	"End-to-End Delay"
field count 19862
field mean 9.5644350611234e-006
field stddev 6.7257211492756e-006
field sum 0.18996880918403
field sqrsum 2.715363128464e-006
field min 4e-007
field max 3.8908277e-005
statistic Basic.rack[1].node[7].app 	hops
field count 19862
field mean 2.9981371463095
field stddev 0.70847371298056
field sum 59549
field sqrsum 188505
field min 2
field max 4
statistic Basic.rack[1].node[8].app 	throughput
field count 19813
field mean 9907
field stddev 5719.6647774731
field sum 196287391
field sqrsum 2592760147719
field min 1
field max 19813
statistic Basic.rack[1].node[8].app 	"End-to-End Delay"
field count 19813
field mean 9.6195767831239e-006
field stddev 6.7623623299639e-006
field sum 0.19059267480403
field sqrsum 2.7394146008877e-006
field min 4e-007
field max 4.080134e-005
statistic Basic.rack[1].node[8].app 	hops
field count 19813
field mean 3.0024731237067
field stddev 0.70863550936085
field sum 59488
field sqrsum 188560
field min 2
field max 4
statistic Basic.rack[1].node[9].app 	throughput
field count 19990
field mean 9995.5
field stddev 5770.7602763125
field sum 199810045
field sqrsum 2662868469715
field min 1
field max 19990
statistic Basic.rack[1].node[9].app 	"End-to-End Delay"
field count 19990
field mean 9.4729515292163e-006
field stddev 6.6641143663008e-006
field sum 0.18936430106903
field sqrsum 2.6815587365105e-006
field min 4e-007
field max 3.8840675e-005
statistic Basic.rack[1].node[9].app 	hops
field count 19990
field mean 2.9889444722361
field stddev 0.70092656558722
field sum 59749
field sqrsum 188407
field min 2
field max 4
statistic Basic.rack[1].eps.queue[0] 	dropsum
field count 0
field mean nan
field stddev nan
field sum 0
field sqrsum 0
field min nan
field max nan
statistic Basic.rack[1].eps.queue[1] 	dropsum
field count 0
field mean nan
field stddev nan
field sum 0
field sqrsum 0
field min nan
field max nan
statistic Basic.rack[1].eps.queue[2] 	dropsum
field count 0
field mean nan
field stddev nan
field sum 0
field sqrsum 0
field min nan
field max nan
statistic Basic.rack[1].eps.queue[3] 	dropsum
field count 0
field mean nan
field stddev nan
field sum 0
field sqrsum 0
field min nan
field max nan
statistic Basic.rack[2].node[0].app 	throughput
field count 20114
field mean 10057.5
field stddev 5806.5559930134
field sum 202296555
field sqrsum 2712729370365
field min 1
field max 20114
statistic Basic.rack[2].node[0].app 	"End-to-End Delay"
field count 20114
field mean 1.4063932687233e-005
field stddev 1.0281411766735e-005
field sum 0.28288194207101
field sqrsum 6.1045260894184e-006
field min 4e-007
field max 6.0665599e-005
statistic Basic.rack[2].node[0].app 	hops
field count 20114
field mean 3.5097941732127
field stddev 1.1177965053574
field sum 70596
field sqrsum 272908
field min 2
field max 5
statistic Basic.rack[2].node[1].app 	throughput
field count 20228
field mean 10114.5
field stddev 5839.4649583673
field sum 204596106
field sqrsum 2759114886814
field min 1
field max 20228
statistic Basic.rack[2].node[1].app 	"End-to-End Delay"
field count 20228
field mean 1.399515405972e-005
field stddev 1.0305268471314e-005
field sum 0.28309397632001
field sqrsum 6.1100220500206e-006
field min 4e-007
field max 5.7963587e-005
statistic Basic.rack[2].node[1].app 	hops
field count 20228
field mean 3.5006921099466
field stddev 1.118149844619
field sum 70812
field sqrsum 273180
field min 2
field max 5
statistic Basic.rack[2].node[2].app 	throughput
field count 19946
field mean 9973.5
field stddev 5758.0585703864
field sum 198931431
field sqrsum 2645323858961
field min 1
field max 19946
statistic Basic.rack[2].node[2].app 	"End-to-End Delay"
field count 19946
field mean 1.4010458000151e-005
field stddev 1.0261728256408e-005
field sum 0.27945259527101
field sqrsum 6.0155285165707e-006
field min 4e-007
field max 5.6296211e-005
statistic Basic.rack[2].node[2].app 	hops
field count 19946
field mean 3.5011531134062
field stddev 1.1146480991677
field sum 69834
field sqrsum 269280
field min 2
field max 5
statistic Basic.rack[2].node[3].app 	throughput
field count 19818
field mean 9909.5
field stddev 5721.1081531466
field sum 196386471
field sqrsum 2594723517009
field min 1
field max 19818
statistic Basic.rack[2].node[3].app 	"End-to-End Delay"
field count 19818
field mean 1.3916389529368e-005
field stddev 1.0340952879573e-005
field sum 0.27579500769301
field sqrsum 5.9572077253802e-006
field min 4e-007
field max 4.9336757e-005
statistic Basic.rack[2].node[3].app 	hops
field count 19818
field mean 3.4914219396508
field stddev 1.1220390712157
field sum 69193
field sqrsum 266531
field min 2
field max 5
statistic Basic.rack[2].node[4].app 	throughput
field count 20023
field mean 10012
field stddev 5780.2865557571
field sum 200470276
field sqrsum 2676077714324
field min 1
field max 20023
statistic Basic.rack[2].node[4].app 	"End-to-End Delay"
field count 20023
field mean 1.4017195964991e-005
field stddev 1.0355683387256e-005
field sum 0.28066631480701
field sqrsum 6.0813175876886e-006
field min 4e-007
field max 5.0685062e-005
statistic Basic.rack[2].node[4].app 	hops
field count 20023
field mean 3.5010737651701
field stddev 1.121339913755
field sum 70102
field sqrsum 270608
field min 2
field max 5
statistic Basic.rack[2].node[5].app 	throughput
field count 19820
field mean 9910.5
field stddev 5721.6855034159
field sum 196426110
field sqrsum 2595509142170
field min 1
field max 19820
statistic Basic.rack[2].node[5].app 	"End-to-End Delay"
field count 19820
field mean 1.3980710432039e-005
field stddev 1.0231742509914e-005
field sum 0.27709768076301
field sqrsum 5.9488449035041e-006
field min 4e-007
field max 5.6395866e-005
statistic Basic.rack[2].node[5].app 	hops
field count 19820
field mean 3.498385469223
field stddev 1.1101354163191
field sum 69338
field sqrsum 266996
field min 2
field max 5
statistic Basic.rack[2].node[6].app 	throughput
field count 20190
field mean 10095.5
field stddev 5828.4953032494
field sum 203828145
field sqrsum 2743594774415
field min 1
field max 20190
statistic Basic.rack[2].node[6].app 	"End-to-End Delay"
field count 20190
field mean 1.3904403389104e-005
field stddev 1.0296398597186e-005
field sum 0.28072990442601
field sqrsum 6.0437353067162e-006
field min 4e-007
field max 5.8053452e-005
statistic Basic.rack[2].node[6].app 	hops
field count 20190
field mean 3.4897969291729
field stddev 1.1153537449144
field sum 70459
field sqrsum 271003
field min 2
field max 5
statistic Basic.rack[2].node[7].app 	throughput
field count 19878
field mean 9939.5
field stddev 5738.4286612277
field sum 197577381
field sqrsum 2618361312139
field min 1
field max 19878
statistic Basic.rack[2].node[7].app 	"End-to-End Delay"
field count 19878
field mean 1.3911159936262e-005
field stddev 1.0338184862886e-005
field sum 0.27652603721301
field sqrsum 5.971213253245e-006
field min 4e-007
field max 5.5149121e-005
statistic Basic.rack[2].node[7].app 	hops
field count 19878
field mean 3.4890834087936
field stddev 1.1166129704688
field sum 69356
field sqrsum 266772
field min 2
field max 5
statistic Basic.rack[2].node[8].app 	throughput
field count 19760
field mean 9880.5
field stddev 5704.3649953347
field sum 195238680
field sqrsum 2572009290760
field min 1
field max 19760
statistic Basic.rack[2].node[8].app 	"End-to-End Delay"
field count 19760
field mean 1.4089102792207e-005
field stddev 1.0244735539767e-005
field sum 0.27840067117401
field sqrsum 5.996213739072e-006
field min 4e-007
field max 5.4009688e-005
statistic Basic.rack[2].node[8].app 	hops
field count 19760
field mean 3.512955465587
field stddev 1.1150862518644
field sum 69416
field sqrsum 268424
field min 2
field max 5
statistic Basic.rack[2].node[9].app 	throughput
field count 19812
field mean 9906.5
field stddev 5719.3761023384
field sum 196267578
field sqrsum 2592367592750
field min 1
field max 19812
statistic Basic.rack[2].node[9].app 	"End-to-End Delay"
field count 19812
field mean 1.4028739423229e-005
field stddev 1.0353379405416e-005
field sum 0.27793738545301
field sqrsum 6.0227010828375e-006
field min 4e-007
field max 5.689844e-005
statistic Basic.rack[2].node[9].app 	hops
field count 19812
field mean 3.5038360589542
field stddev 1.1240890615242
field sum 69418
field sqrsum 268262
field min 2
field max 5
statistic Basic.rack[2].eps.queue[0] 	dropsum
field count 0
field mean nan
field stddev nan
field sum 0
field sqrsum 0
field min nan
field max nan
statistic Basic.rack[2].eps.queue[1] 	dropsum
field count 0
field mean nan
field stddev nan
field sum 0
field sqrsum 0
field min nan
field max nan
statistic Basic.rack[2].eps.queue[2] 	dropsum
field count 0
field mean nan
field stddev nan
field sum 0
field sqrsum 0
field min nan
field max nan
statistic Basic.rack[2].eps.queue[3] 	dropsum
field count 0
field mean nan
field stddev nan
field sum 0
field sqrsum 0
field min nan
field max nan
statistic Basic.rack[3].node[0].app 	throughput
field count 20050
field mean 10025.5
field stddev 5788.0807843936
field sum 201011275
field sqrsum 2686917712925
field min 1
field max 20050
statistic Basic.rack[3].node[0].app 	"End-to-End Delay"
field count 20050
field mean 1.397440802803e-005
field stddev 1.02614485693e-005
field sum 0.28018688096201
field sqrsum 6.0265519024823e-006
field min 4e-007
field max 5.1329286e-005
statistic Basic.rack[3].node[0].app 	hops
field count 20050
field mean 3.5007481296758
field stddev 1.1166331574704
field sum 70190
field sqrsum 270716
field min 2
field max 5
statistic Basic.rack[3].node[1].app 	throughput
field count 19945
field mean 9973
field stddev 5757.7698952517
field sum 198911485
field sqrsum 2644926016045
field min 1
field max 19945
statistic Basic.rack[3].node[1].app 	"End-to-End Delay"
field count 19945
field mean 1.3890076620407e-005
field stddev 1.0265021821674e-005
field sum 0.27703757819401
field sqrsum 5.9495858901477e-006
field min 4e-007
field max 5.1385969e-005
statistic Basic.rack[3].node[1].app 	hops
field count 19945
field mean 3.4898972173477
field stddev 1.114040284091
field sum 69606
field sqrsum 267670
field min 2
field max 5
statistic Basic.rack[3].node[2].app 	throughput
field count 20059
field mean 10030
field stddev 5790.6788606058
field sum 201191770
field sqrsum 2690537540210
field min 1
field max 20059
statistic Basic.rack[3].node[2].app 	"End-to-End Delay"
field count 20059
field mean 1.3936840142131e-005
field stddev 1.0292599099756e-005
field sum 0.27955907641101
field sqrsum 6.0210664633694e-006
field min 4e-007
field max 6.3199206e-005
statistic Basic.rack[3].node[2].app 	hops
field count 20059
field mean 3.4953387506855
field stddev 1.1201237185861
field sum 70113
field sqrsum 270235
field min 2
field max 5
statistic Basic.rack[3].node[3].app 	throughput
field count 19889
field mean 9945
field stddev 5741.6040877093
field sum 197796105
field sqrsum 2622710420265
field min 1
field max 19889
statistic Basic.rack[3].node[3].app 	"End-to-End Delay"
field count 19889
field mean 1.3941554273871e-005
field stddev 1.0305029235259e-005
field sum 0.27728357295301
field sqrsum 5.9777428460838e-006
field min 4e-007
field max 5.41255e-005
statistic Basic.rack[3].node[3].app 	hops
field count 19889
field mean 3.4945950022626
field stddev 1.1159558458364
field sum 69504
field sqrsum 267656
field min 2
field max 5
statistic Basic.rack[3].node[4].app 	throughput
field count 19843
field mean 9922
field stddev 5728.3250315137
field sum 196882246
field sqrsum 2604555232334
field min 1
field max 19843
statistic Basic.rack[3].node[4].app 	"End-to-End Delay"
field count 19843
field mean 1.3983998548758e-005
field stddev 1.0298084906173e-005
field sum 0.27748448320301
field sqrsum 5.9845976777766e-006
field min 4e-007
field max 5.1881457e-005
statistic Basic.rack[3].node[4].app 	hops
field count 19843
field mean 3.4991180769037
field stddev 1.1194357983915
field sum 69433
field sqrsum 267819
field min 2
field max 5
statistic Basic.rack[3].node[5].app 	throughput
field count 19903
field mean 9952
field stddev 5745.6455395949
field sum 198074656
field sqrsum 2628252610464
field min 1
field max 19903
statistic Basic.rack[3].node[5].app 	"End-to-End Delay"
field count 19903
field mean 1.404275294207e-005
field stddev 1.0319507851449e-005
field sum 0.27949291180601
field sqrsum 6.0442585157289e-006
field min 4e-007
field max 5.2650202e-005
statistic Basic.rack[3].node[5].app 	hops
field count 19903
field mean 3.5047982716173
field stddev 1.1175798015605
field sum 69756
field sqrsum 269338
field min 2
field max 5
statistic Basic.rack[3].node[6].app 	throughput
field count 20107
field mean 10054
field stddev 5804.5352670706
field sum 202155778
field sqrsum 2709898204090
field min 1
field max 20107
statistic Basic.rack[3].node[6].app 	"End-to-End Delay"
field count 20107
field mean 1.3936336800866e-005
field stddev 1.0332250890046e-005
field sum 0.28021792405501
field sqrsum 6.0516356096637e-006
field min 4e-007
field max 5.2618456e-005
statistic Basic.rack[3].node[6].app 	hops
field count 20107
field mean 3.4934599890585
field stddev 1.1204644857867
field sum 70243
field sqrsum 270633
field min 2
field max 5
statistic Basic.rack[3].node[7].app 	throughput
field count 20153
field mean 10077
field stddev 5817.8143232661
field sum 203081781
field sqrsum 2728539115589
field min 1
field max 20153
statistic Basic.rack[3].node[7].app 	"End-to-End Delay"
field count 20153
field mean 1.4010327336377e-005
field stddev 1.0324862835529e-005
field sum 0.28235012681001
field sqrsum 6.1040771759965e-006
field min 4e-007
field max 6.2506916e-005
statistic Basic.rack[3].node[7].app 	hops
field count 20153
field mean 3.5021584875701
field stddev 1.1199443347379
field sum 70579
field sqrsum 272455
field min 2
field max 5
statistic Basic.rack[3].node[8].app 	throughput
field count 20053
field mean 10027
field stddev 5788.9468097977
field sum 201071431
field sqrsum 2688123961039
field min 1
field max 20053
statistic Basic.rack[3].node[8].app 	"End-to-End Delay"
field count 20053
field mean 1.3907005146113e-005
field stddev 1.0252641810401e-005
field sum 0.27887717419501
field sqrsum 5.986145645044e-006
field min 4e-007
field max 5.0724521e-005
statistic Basic.rack[3].node[8].app 	hops
field count 20053
field mean 3.4912980601406
field stddev 1.1156837477483
field sum 70011
field sqrsum 269389
field min 2
field max 5
statistic Basic.rack[3].node[9].app 	throughput
field count 20151
field mean 10076
field stddev 5817.2369729967
field sum 203041476
field sqrsum 2727726869076
field min 1
field max 20151
statistic Basic.rack[3].node[9].app 	"End-to-End Delay"
field count 20151
field mean 1.395263620406e-005
field stddev 1.0339015485093e-005
field sum 0.28115957214801
field sqrsum 6.0768563356703e-006
field min 4e-007
field max 4.9747747e-005
statistic Basic.rack[3].node[9].app 	hops
field count 20151
field mean 3.4975931715548
field stddev 1.124057548857
field sum 70480
field sqrsum 271970
field min 2
field max 5
statistic Basic.rack[3].eps.queue[0] 	dropsum
field count 0
field mean nan
field stddev nan
field sum 0
field sqrsum 0
field min nan
field max nan
statistic Basic.rack[3].eps.queue[1] 	dropsum
field count 0
field mean nan
field stddev nan
field sum 0
field sqrsum 0
field min nan
field max nan
statistic Basic.rack[3].eps.queue[2] 	dropsum
field count 0
field mean nan
field stddev nan
field sum 0
field sqrsum 0
field min nan
field max nan
statistic Basic.rack[3].eps.queue[3] 	dropsum
field count 0
field mean nan
field stddev nan
field sum 0
field sqrsum 0
field min nan
field max nan
statistic Basic.rack[4].node[0].app 	throughput
field count 20001
field mean 10001
field stddev 5773.9357027941
field sum 200030001
field sqrsum 2667266710001
field min 1
field max 20001
statistic Basic.rack[4].node[0].app 	"End-to-End Delay"
field count 20001
field mean 9.5590009300552e-006
field stddev 6.6940102325145e-006
field sum 0.19118957760203
field sqrsum 2.7237768099749e-006
field min 4e-007
field max 4.0304942e-005
statistic Basic.rack[4].node[0].app 	hops
field count 20001
field mean 2.9982500874956
field stddev 0.70657408504213
field sum 59968
field sqrsum 189784
field min 2
field max 4
statistic Basic.rack[4].node[1].app 	throughput
field count 19997
field mean 9999
field stddev 5772.7810022553
field sum 199950003
field sqrsum 2665666789995
field min 1
field max 19997
statistic Basic.rack[4].node[1].app 	"End-to-End Delay"
field count 19997
field mean 9.5691000027021e-006
field stddev 6.7089199405061e-006
field sum 0.19135329275403
field sqrsum 2.731090891145e-006
field min 4e-007
field max 4.7549004e-005
statistic Basic.rack[4].node[1].app 	hops
field count 19997
field mean 2.9987498124719
field stddev 0.70544168211055
field sum 59966
field sqrsum 189774
field min 2
field max 4
statistic Basic.rack[4].node[2].app 	throughput
field count 19922
field mean 9961.5
field stddev 5751.1303671539
field sum 198453003
field sqrsum 2635786634845
field min 1
field max 19922
statistic Basic.rack[4].node[2].app 	"End-to-End Delay"
field count 19922
field mean 9.5437002869207e-006
field stddev 6.7366569219292e-006
field sum 0.19012959711603
field sqrsum 2.7186055990517e-006
field min 4e-007
field max 4.0110858e-005
statistic Basic.rack[4].node[2].app 	hops
field count 19922
field mean 2.9936753338018
field stddev 0.70755754070813
field sum 59640
field sqrsum 188516
field min 2
field max 4
statistic Basic.rack[4].node[3].app 	throughput
field count 19944
field mean 9972.5
field stddev 5757.481220117
field sum 198891540
field sqrsum 2644528213020
field min 1
field max 19944
statistic Basic.rack[4].node[3].app 	"End-to-End Delay"
field count 19944
field mean 9.5711773602103e-006
field stddev 6.7166549745078e-006
field sum 0.19088756127203
field sqrsum 2.7267163188436e-006
field min 4e-007
field max 5.2329395e-005
statistic Basic.rack[4].node[3].app 	hops
field count 19944
field mean 2.9976434015243
field stddev 0.70602059990693
field sum 59785
field sqrsum 189155
field min 2
field max 4
statistic Basic.rack[4].node[4].app 	throughput
field count 20003
field mean 10002
field stddev 5774.5130530634
field sum 200070006
field sqrsum 2668066910014
field min 1
field max 20003
statistic Basic.rack[4].node[4].app 	"End-to-End Delay"
field count 20003
field mean 9.5491924907781e-006
field stddev 6.7189419620553e-006
field sum 0.19101249739304
field sqrsum 2.7269890159019e-006
field min 4e-007
field max 4.9605697e-005
statistic Basic.rack[4].node[4].app 	hops
field count 20003
field mean 2.995200719892
field stddev 0.70464694047758
field sum 59913
field sqrsum 189383
field min 2
field max 4
statistic Basic.rack[4].node[5].app 	throughput
field count 19981
field mean 9991
field stddev 5768.1622001004
field sum 199630171
field sqrsum 2659273507891
field min 1
field max 19981
statistic Basic.rack[4].node[5].app 	"End-to-End Delay"
field count 19981
field mean 9.4797804066881e-006
field stddev 6.7163269625499e-006
field sum 0.18941549230604
field sqrsum 2.6968960490861e-006
field min 4e-007
field max 4.6215872e-005
statistic Basic.rack[4].node[5].app 	hops
field count 19981
field mean 2.9886892547921
field stddev 0.70800668220095
field sum 59717
field sqrsum 188491
field min 2
field max 4
statistic Basic.rack[4].node[6].app 	throughput
field count 19990
field mean 9995.5
field stddev 5770.7602763125
field sum 199810045
field sqrsum 2662868469715
field min 1
field max 19990
statistic Basic.rack[4].node[6].app 	"End-to-End Delay"
field count 19990
field mean 9.5290049397217e-006
field stddev 6.7426072500041e-006
field sum 0.19048480874504
field sqrsum 2.7238856437517e-006
field min 4e-007
field max 5.2991807e-005
statistic Basic.rack[4].node[6].app 	hops
field count 19990
field mean 2.9935467733867
field stddev 0.70787285078143
field sum 59841
field sqrsum 189153
field min 2
field max 4
statistic Basic.rack[4].node[7].app 	throughput
field count 19995
field mean 9998
field stddev 5772.203651986
field sum 199910010
field sqrsum 2664867069970
field min 1
field max 19995
statistic Basic.rack[4].node[7].app 	"End-to-End Delay"
field count 19995
field mean 9.639638836311e-006
field stddev 6.7229774240798e-006
field sum 0.19274457853204
field sqrsum 2.7616854430469e-006
field min 4e-007
field max 5.1332824e-005
statistic Basic.rack[4].node[7].app 	hops
field count 19995
field mean 3.0055013753438
field stddev 0.70293525863265
field sum 60095
field sqrsum 190495
field min 2
field max 4
statistic Basic.rack[4].node[8].app 	throughput
field count 20184
field mean 10092.5
field stddev 5826.7632524413
field sum 203707020
field sqrsum 2741149563460
field min 1
field max 20184
statistic Basic.rack[4].node[8].app 	"End-to-End Delay"
field count 20184
field mean 9.5505048278357e-006
field stddev 6.7622754131918e-006
field sum 0.19276738944503
field sqrsum 2.763961550305e-006
field min 4e-007
field max 4.8406003e-005
statistic Basic.rack[4].node[8].app 	hops
field count 20184
field mean 2.9958382877527
field stddev 0.71060686559731
field sum 60468
field sqrsum 191344
field min 2
field max 4
statistic Basic.rack[4].node[9].app 	throughput
field count 20141
field mean 10071
field stddev 5814.3502216499
field sum 202840011
field sqrsum 2723668054371
field min 1
field max 20141
statistic Basic.rack[4].node[9].app 	"End-to-End Delay"
field count 20141
field mean 9.6209317877978e-006
field stddev 6.7225562578202e-006
field sum 0.19377518713804
field sqrsum 2.7744800971835e-006
field min 4e-007
field max 4.9648796e-005
statistic Basic.rack[4].node[9].app 	hops
field count 20141
field mean 3.00218459858
field stddev 0.70555688660903
field sum 60467
field sqrsum 191559
field min 2
field max 4
statistic Basic.rack[4].eps.queue[0] 	dropsum
field count 0
field mean nan
field stddev nan
field sum 0
field sqrsum 0
field min nan
field max nan
statistic Basic.rack[4].eps.queue[1] 	dropsum
field count 0
field mean nan
field stddev nan
field sum 0
field sqrsum 0
field min nan
field max nan
statistic Basic.rack[4].eps.queue[2] 	dropsum
field count 0
field mean nan
field stddev nan
field sum 0
field sqrsum 0
field min nan
field max nan
statistic Basic.rack[4].eps.queue[3] 	dropsum
field count 0
field mean nan
field stddev nan
field sum 0
field sqrsum 0
field min nan
field max nan
statistic Basic.rack[5].node[0].app 	throughput
field count 19866
field mean 9933.5
field stddev 5734.9645596115
field sum 197338911
field sqrsum 2613622316921
field min 1
field max 19866
statistic Basic.rack[5].node[0].app 	"End-to-End Delay"
field count 19866
field mean 9.5792509562586e-006
field stddev 6.7183943591341e-006
field sum 0.19030139949703
field sqrsum 2.7195878473329e-006
field min 4e-007
field max 4.3672975e-005
statistic Basic.rack[5].node[0].app 	hops
field count 19866
field mean 2.9979865096144
field stddev 0.70494708180059
field sum 59558
field sqrsum 188426
field min 2
field max 4
statistic Basic.rack[5].node[1].app 	throughput
field count 19889
field mean 9945
field stddev 5741.6040877093
field sum 197796105
field sqrsum 2622710420265
field min 1
field max 19889
statistic Basic.rack[5].node[1].app 	"End-to-End Delay"
field count 19889
field mean 9.5150769160861e-006
field stddev 6.6381494442729e-006
field sum 0.18924536478404
field sqrsum 2.6770494796819e-006
field min 4e-007
field max 4.3495677e-005
statistic Basic.rack[5].node[1].app 	hops
field count 19889
field mean 2.9952737694203
field stddev 0.70295447840457
field sum 59573
field sqrsum 188265
field min 2
field max 4
statistic Basic.rack[5].node[2].app 	throughput
field count 20032
field mean 10016.5
field stddev 5782.8846319693
field sum 200650528
field sqrsum 2679687801440
field min 1
field max 20032
statistic Basic.rack[5].node[2].app 	"End-to-End Delay"
field count 20032
field mean 9.5338580624019e-006
field stddev 6.7078040650672e-006
field sum 0.19098224470604
field sqrsum 2.7220851546695e-006
field min 4e-007
field max 4.5679286e-005
statistic Basic.rack[5].node[2].app 	hops
field count 20032
field mean 2.9952575878594
field stddev 0.70636682728987
field sum 60001
field sqrsum 189713
field min 2
field max 4
statistic Basic.rack[5].node[3].app 	throughput
field count 19978
field mean 9989.5
field stddev 5767.2961746963
field sum 199570231
field sqrsum 2658075906689
field min 1
field max 19978
statistic Basic.rack[5].node[3].app 	"End-to-End Delay"
field count 19978
field mean 9.6036372027747e-006
field stddev 6.7320792671889e-006
field sum 0.19186146403703
field sqrsum 2.7479433385002e-006
field min 4e-007
field max 4.6911435e-005
statistic Basic.rack[5].node[3].app 	hops
field count 19978
field mean 3.0013014315747
field stddev 0.70496086659892
field sum 59960
field sqrsum 189886
field min 2
field max 4
statistic Basic.rack[5].node[4].app 	throughput
field count 19960
field mean 9980.5
field stddev 5762.100022272
field sum 199210780
field sqrsum 2650897849460
field min 1
field max 19960
statistic Basic.rack[5].node[4].app 	"End-to-End Delay"
field count 19960
field mean 9.6167138846711e-006
field stddev 6.7557781090981e-006
field sum 0.19194960913804
field sqrsum 2.7568639664901e-006
field min 4e-007
field max 4.7723199e-005
statistic Basic.rack[5].node[4].app 	hops
field count 19960
field mean 3.0038076152305
field stddev 0.70845921244367
field sum 59956
field sqrsum 190114
field min 2
field max 4
statistic Basic.rack[5].node[5].app 	throughput
field count 19946
field mean 9973.5
field stddev 5758.0585703864
field sum 198931431
field sqrsum 2645323858961
field min 1
field max 19946
statistic Basic.rack[5].node[5].app 	"End-to-End Delay"
field count 19946
field mean 9.5940811090963e-006
field stddev 6.7483948923331e-006
field sum 0.19136354180204
field sqrsum 2.7442692679808e-006
field min 4e-007
field max 4.3289643e-005
statistic Basic.rack[5].node[5].app 	hops
field count 19946
field mean 3.0011029780407
field stddev 0.7082218060553
field sum 59860
field sqrsum 189650
field min 2
field max 4
statistic Basic.rack[5].node[6].app 	throughput
field count 19830
field mean 9915.5
field stddev 5724.5722547628
field sum 196624365
field sqrsum 2599439646755
field min 1
field max 19830
statistic Basic.rack[5].node[6].app 	"End-to-End Delay"
field count 19830
field mean 9.5440187066079e-006
field stddev 6.6719089888114e-006
field sum 0.18925789095203
field sqrsum 2.6889562855251e-006
field min 4e-007
field max 4.8715424e-005
statistic Basic.rack[5].node[6].app 	hops
field count 19830
field mean 2.9971759959657
field stddev 0.70415300304745
field sum 59434
field sqrsum 187966
field min 2
field max 4
statistic Basic.rack[5].node[7].app 	throughput
field count 19912
field mean 9956.5
field stddev 5748.2436158071
field sum 198253828
field sqrsum 2631819566700
field min 1
field max 19912
statistic Basic.rack[5].node[7].app 	"End-to-End Delay"
field count 19912
field mean 9.5984015848751e-006
field stddev 6.7104043280948e-006
field sum 0.19112337235803
field sqrsum 2.7310617772424e-006
field min 4e-007
field max 4.6173659e-005
statistic Basic.rack[5].node[7].app 	hops
field count 19912
field mean 3.0019586179188
field stddev 0.70758333841295
field sum 59775
field sqrsum 189411
field min 2
field max 4
statistic Basic.rack[5].node[8].app 	throughput
field count 19935
field mean 9968
field stddev 5754.8831439048
field sum 198712080
field sqrsum 2640949780560
field min 1
field max 19935
statistic Basic.rack[5].node[8].app 	"End-to-End Delay"
field count 19935
field mean 9.5471132378748e-006
field stddev 6.7125301920616e-006
field sum 0.19032170239703
field sqrsum 2.7152102439321e-006
field min 4e-007
field max 4.0806348e-005
statistic Basic.rack[5].node[8].app 	hops
field count 19935
field mean 2.9953348382242
field stddev 0.70453269323717
field sum 59712
field sqrsum 188752
field min 2
field max 4
statistic Basic.rack[5].node[9].app 	throughput
field count 19986
field mean 9993.5
field stddev 5769.6055757738
field sum 199730091
field sqrsum 2661270309181
field min 1
field max 19986
statistic Basic.rack[5].node[9].app 	"End-to-End Delay"
field count 19986
field mean 9.5546775294724e-006
field stddev 6.7284760166576e-006
field sum 0.19095978510403
field sqrsum 2.7293278720585e-006
field min 4e-007
field max 4.6966323e-005
statistic Basic.rack[5].node[9].app 	hops
field count 19986
field mean 2.9965976183328
field stddev 0.70835355259145
field sum 59890
field sqrsum 189494
field min 2
field max 4
statistic Basic.rack[5].eps.queue[0] 	dropsum
field count 0
field mean nan
field stddev nan
field sum 0
field sqrsum 0
field min nan
field max nan
statistic Basic.rack[5].eps.queue[1] 	dropsum
field count 0
field mean nan
field stddev nan
field sum 0
field sqrsum 0
field min nan
field max nan
statistic Basic.rack[5].eps.queue[2] 	dropsum
field count 0
field mean nan
field stddev nan
field sum 0
field sqrsum 0
field min nan
field max nan
statistic Basic.rack[5].eps.queue[3] 	dropsum
field count 0
field mean nan
field stddev nan
field sum 0
field sqrsum 0
field min nan
field max nan
statistic Basic.rack[6].node[0].app 	throughput
field count 20000
field mean 10000.5
field stddev 5773.6470276594
field sum 200010000
field sqrsum 2666866670000
field min 1
field max 20000
statistic Basic.rack[6].node[0].app 	"End-to-End Delay"
field count 20000
field mean 1.4010228174601e-005
field stddev 1.0315011719532e-005
field sum 0.28020456349201
field sqrsum 6.0536128061024e-006
field min 4e-007
field max 5.8897971e-005
statistic Basic.rack[6].node[0].app 	hops
field count 20000
field mean 3.5034
field stddev 1.120736919425
field sum 70068
field sqrsum 270596
field min 2
field max 5
statistic Basic.rack[6].node[1].app 	throughput
field count 19971
field mean 9986
field stddev 5765.2754487535
field sum 199430406
field sqrsum 2655282902286
field min 1
field max 19971
statistic Basic.rack[6].node[1].app 	"End-to-End Delay"
field count 19971
field mean 1.3931282519203e-005
field stddev 1.0298893095546e-005
field sum 0.27822164319101
field sqrsum 5.9941462781508e-006
field min 4e-007
field max 5.9196785e-005
statistic Basic.rack[6].node[1].app 	hops
field count 19971
field mean 3.4952681388013
field stddev 1.1199091197998
field sum 69804
field sqrsum 269030
field min 2
field max 5
statistic Basic.rack[6].node[2].app 	throughput
field count 19888
field mean 9944.5
field stddev 5741.3154125746
field sum 197776216
field sqrsum 2622314847944
field min 1
field max 19888
statistic Basic.rack[6].node[2].app 	"End-to-End Delay"
field count 19888
field mean 1.3978411833518e-005
field stddev 1.0318579151586e-005
field sum 0.27800265454501
field sqrsum 6.0034656526373e-006
field min 4e-007
field max 5.1560424e-005
statistic Basic.rack[6].node[2].app 	hops
field count 19888
field mean 3.4968322606597
field stddev 1.1167075596336
field sum 69545
field sqrsum 267987
field min 2
field max 5
statistic Basic.rack[6].node[3].app 	throughput
field count 19779
field mean 9890
field stddev 5709.8498228938
field sum 195614310
field sqrsum 2579435496430
field min 1
field max 19779
statistic Basic.rack[6].node[3].app 	"End-to-End Delay"
field count 19779
field mean 1.3905306029375e-005
field stddev 1.0273310919302e-005
field sum 0.27503304795501
field sqrsum 5.9118069612708e-006
field min 4e-007
field max 5.9679986e-005
statistic Basic.rack[6].node[3].app 	hops
field count 19779
field mean 3.4922392436422
field stddev 1.1156132473129
field sum 69073
field sqrsum 265835
field min 2
field max 5
statistic Basic.rack[6].node[4].app 	throughput
field count 20110
field mean 10055.5
field stddev 5805.4012924747
field sum 202216105
field sqrsum 2711111319735
field min 1
field max 20110
statistic Basic.rack[6].node[4].app 	"End-to-End Delay"
field count 20110
field mean 1.4098699632472e-005
field stddev 1.029774615981e-005
field sum 0.28352484960901
field sqrsum 6.1297619621976e-006
field min 4e-007
field max 5.3248953e-005
statistic Basic.rack[6].node[4].app 	hops
field count 20110
field mean 3.511834908006
field stddev 1.1168865834787
field sum 70623
field sqrsum 273101
field min 2
field max 5
statistic Basic.rack[6].node[5].app 	throughput
field count 20278
field mean 10139.5
field stddev 5853.8987151015
field sum 205608781
field sqrsum 2779625110339
field min 1
field max 20278
statistic Basic.rack[6].node[5].app 	"End-to-End Delay"
field count 20278
field mean 1.3994695603167e-005
field stddev 1.03053568531e-005
field sum 0.28378443744101
field sqrsum 6.1249019215215e-006
field min 4e-007
field max 5.6590824e-005
statistic Basic.rack[6].node[5].app 	hops
field count 20278
field mean 3.5026136699872
field stddev 1.1200856998113
field sum 71026
field sqrsum 274216
field min 2
field max 5
statistic Basic.rack[6].node[6].app 	throughput
field count 20021
field mean 10011
field stddev 5779.7092054878
field sum 200430231
field sqrsum 2675275913311
field min 1
field max 20021
statistic Basic.rack[6].node[6].app 	"End-to-End Delay"
field count 20021
field mean 1.4038660310025e-005
field stddev 1.0280801518675e-005
field sum 0.28106801806701
field sqrsum 6.0618299245798e-006
field min 4e-007
field max 5.4889633e-005
statistic Basic.rack[6].node[6].app 	hops
field count 20021
field mean 3.5047200439538
field stddev 1.114628996569
field sum 70168
field sqrsum 270792
field min 2
field max 5
statistic Basic.rack[6].node[7].app 	throughput
field count 20056
field mean 10028.5
field stddev 5789.8128352017
field sum 201131596
field sqrsum 2689330570116
field min 1
field max 20056
statistic Basic.rack[6].node[7].app 	"End-to-End Delay"
field count 20056
field mean 1.3957794033856e-005
field stddev 1.0245135861225e-005
field sum 0.27993751714301
field sqrsum 6.0123393374152e-006
field min 4e-007
field max 5.0515222e-005
statistic Basic.rack[6].node[7].app 	hops
field count 20056
field mean 3.4964100518548
field stddev 1.1126914890143
field sum 70124
field sqrsum 270012
field min 2
field max 5
statistic Basic.rack[6].node[8].app 	throughput
field count 19747
field mean 9874
field stddev 5700.6122185838
field sum 194981878
field sqrsum 2566936423870
field min 1
field max 19747
statistic Basic.rack[6].node[8].app 	"End-to-End Delay"
field count 19747
field mean 1.4090455804123e-005
field stddev 1.0334852049388e-005
field sum 0.27824423076401
field sqrsum 6.0296418455989e-006
field min 4e-007
field max 4.9481863e-005
statistic Basic.rack[6].node[8].app 	hops
field count 19747
field mean 3.5088874259381
field stddev 1.1206285191657
field sum 69290
field sqrsum 267928
field min 2
field max 5
statistic Basic.rack[6].node[9].app 	throughput
field count 20309
field mean 10155
field stddev 5862.8476442766
field sum 206237895
field sqrsum 2792392352335
field min 1
field max 20309
statistic Basic.rack[6].node[9].app 	"End-to-End Delay"
field count 20309
field mean 1.4064853139101e-005
field stddev 1.0295348652034e-005
field sum 0.28564310240201
field sqrsum 6.1700585776114e-006
field min 4e-007
field max 5.8604582e-005
statistic Basic.rack[6].node[9].app 	hops
field count 20309
field mean 3.5109557339111
field stddev 1.1191303961861
field sum 71304
field sqrsum 275780
field min 2
field max 5
statistic Basic.rack[6].eps.queue[0] 	dropsum
field count 0
field mean nan
field stddev nan
field sum 0
field sqrsum 0
field min nan
field max nan
statistic Basic.rack[6].eps.queue[1] 	dropsum
field count 0
field mean nan
field stddev nan
field sum 0
field sqrsum 0
field min nan
field max nan
statistic Basic.rack[6].eps.queue[2] 	dropsum
field count 0
field mean nan
field stddev nan
field sum 0
field sqrsum 0
field min nan
field max nan
statistic Basic.rack[6].eps.queue[3] 	dropsum
field count 0
field mean nan
field stddev nan
field sum 0
field sqrsum 0
field min nan
field max nan
statistic Basic.rack[7].node[0].app 	throughput
field count 20138
field mean 10069.5
field stddev 5813.4841962458
field sum 202779591
field sqrsum 2722451195569
field min 1
field max 20138
statistic Basic.rack[7].node[0].app 	"End-to-End Delay"
field count 20138
field mean 1.4001496479442e-005
field stddev 1.0351454673726e-005
field sum 0.28196213610301
field sqrsum 6.1056240413254e-006
field min 4e-007
field max 5.0964888e-005
statistic Basic.rack[7].node[0].app 	hops
field count 20138
field mean 3.4990565100804
field stddev 1.119925269964
field sum 70464
field sqrsum 271814
field min 2
field max 5
statistic Basic.rack[7].node[1].app 	throughput
field count 20080
field mean 10040.5
field stddev 5796.7410384342
field sum 201613240
field sqrsum 2698996443880
field min 1
field max 20080
statistic Basic.rack[7].node[1].app 	"End-to-End Delay"
field count 20080
field mean 1.3986131221813e-005
field stddev 1.0269212785251e-005
field sum 0.28084151493401
field sqrsum 6.0453519867421e-006
field min 4e-007
field max 6.0274952e-005
statistic Basic.rack[7].node[1].app 	hops
field count 20080
field mean 3.5
field stddev 1.1157877575223
field sum 70280
field sqrsum 270978
field min 2
field max 5
statistic Basic.rack[7].node[2].app 	throughput
field count 19902
field mean 9951.5
field stddev 5745.3568644602
field sum 198054753
field sqrsum 2627856481055
field min 1
field max 19902
statistic Basic.rack[7].node[2].app 	"End-to-End Delay"
field count 19902
field mean 1.3962632295247e-005
field stddev 1.0293765636966e-005
field sum 0.27788430794001
field sqrsum 5.9887384326734e-006
field min 4e-007
field max 6.7614597e-005
statistic Basic.rack[7].node[2].app 	hops
field count 19902
field mean 3.4943724248819
field stddev 1.1153480586681
field sum 69545
field sqrsum 267773
field min 2
field max 5
statistic Basic.rack[7].node[3].app 	throughput
field count 20258
field mean 10129.5
field stddev 5848.1252124078
field sum 205203411
field sqrsum 2771408867829
field min 1
field max 20258
statistic Basic.rack[7].node[3].app 	"End-to-End Delay"
field count 20258
field mean 1.384036729307e-005
field stddev 1.0313992563077e-005
field sum 0.28037816062301
field sqrsum 6.035444835548e-006
field min 4e-007
field max 6.0952666e-005
statistic Basic.rack[7].node[3].app 	hops
field count 20258
field mean 3.4854872149274
field stddev 1.1223303768095
field sum 70609
field sqrsum 271623
field min 2
field max 5
statistic Basic.rack[7].node[4].app 	throughput
field count 19796
field mean 9898.5
field stddev 5714.7573001834
field sum 195950706
field sqrsum 2586092100886
field min 1
field max 19796
statistic Basic.rack[7].node[4].app 	"End-to-End Delay"
field count 19796
field mean 1.3934370603607e-005
field stddev 1.0358056414535e-005
field sum 0.27584480046901
field sqrsum 5.9675160193466e-006
field min 4e-007
field max 6.6434696e-005
statistic Basic.rack[7].node[4].app 	hops
field count 19796
field mean 3.493180440493
field stddev 1.1225057525058
field sum 69151
field sqrsum 266499
field min 2
field max 5
statistic Basic.rack[7].node[5].app 	throughput
field count 19872
field mean 9936.5
field stddev 5736.6966104196
field sum 197458128
field sqrsum 2615991099120
field min 1
field max 19872
statistic Basic.rack[7].node[5].app 	"End-to-End Delay"
field count 19872
field mean 1.4003286957831e-005
field stddev 1.0300909583355e-005
field sum 0.27827331842601
field sqrsum 6.0052278682827e-006
field min 4e-007
field max 5.5678672e-005
statistic Basic.rack[7].node[5].app 	hops
field count 19872
field mean 3.5019625603865
field stddev 1.1182854286099
field sum 69591
field sqrsum 268555
field min 2
field max 5
statistic Basic.rack[7].node[6].app 	throughput
field count 19943
field mean 9972
field stddev 5757.1925449823
field sum 198871596
field sqrsum 2644130449884
field min 1
field max 19943
statistic Basic.rack[7].node[6].app 	"End-to-End Delay"
field count 19943
field mean 1.3939123709473e-005
field stddev 1.0319799481727e-005
field sum 0.27798794413801
field sqrsum 5.9986966707848e-006
field min 4e-007
field max 6.5846805e-005
statistic Basic.rack[7].node[6].app 	hops
field count 19943
field mean 3.4942586371158
field stddev 1.1194143949412
field sum 69686
field sqrsum 268490
field min 2
field max 5
statistic Basic.rack[7].node[7].app 	throughput
field count 20015
field mean 10008
field stddev 5777.9771546797
field sum 200310120
field sqrsum 2672871471240
field min 1
field max 20015
statistic Basic.rack[7].node[7].app 	"End-to-End Delay"
field count 20015
field mean 1.3910248259256e-005
field stddev 1.0305769942048e-005
field sum 0.27841361890901
field sqrsum 5.998467364268e-006
field min 4e-007
field max 7.3057153e-005
statistic Basic.rack[7].node[7].app 	hops
field count 20015
field mean 3.4900824381714
field stddev 1.1154900472738
field sum 69854
field sqrsum 268700
field min 2
field max 5
statistic Basic.rack[7].node[8].app 	throughput
field count 19970
field mean 9985.5
field stddev 5764.9867736188
field sum 199410435
field sqrsum 2654884061445
field min 1
field max 19970
statistic Basic.rack[7].node[8].app 	"End-to-End Delay"
field count 19970
field mean 1.395044119975e-005
field stddev 1.0297580465262e-005
field sum 0.27859031075901
field sqrsum 6.0039737727677e-006
field min 4e-007
field max 5.5157385e-005
statistic Basic.rack[7].node[8].app 	hops
field count 19970
field mean 3.4970455683525
field stddev 1.11509803248
field sum 69836
field sqrsum 269050
field min 2
field max 5
statistic Basic.rack[7].node[9].app 	throughput
field count 19747
field mean 9874
field stddev 5700.6122185838
field sum 194981878
field sqrsum 2566936423870
field min 1
field max 19747
statistic Basic.rack[7].node[9].app 	"End-to-End Delay"
field count 19747
field mean 1.4019528297261e-005
field stddev 1.0275757630864e-005
field sum 0.27684362528601
field sqrsum 5.966220772877e-006
field min 4e-007
field max 6.5052847e-005
statistic Basic.rack[7].node[9].app 	hops
field count 19747
field mean 3.5034688813491
field stddev 1.1152223429359
field sum 69183
field sqrsum 266939
field min 2
field max 5
statistic Basic.rack[7].eps.queue[0] 	dropsum
field count 0
field mean nan
field stddev nan
field sum 0
field sqrsum 0
field min nan
field max nan
statistic Basic.rack[7].eps.queue[1] 	dropsum
field count 0
field mean nan
field stddev nan
field sum 0
field sqrsum 0
field min nan
field max nan
statistic Basic.rack[7].eps.queue[2] 	dropsum
field count 0
field mean nan
field stddev nan
field sum 0
field sqrsum 0
field min nan
field max nan
statistic Basic.rack[7].eps.queue[3] 	dropsum
field count 0
field mean nan
field stddev nan
field sum 0
field sqrsum 0
field min nan
field max nan
statistic Basic.rack[8].node[0].app 	throughput
field count 20040
field mean 10020.5
field stddev 5785.1940330468
field sum 200810820
field sqrsum 2682899492140
field min 1
field max 20040
statistic Basic.rack[8].node[0].app 	"End-to-End Delay"
field count 20040
field mean 9.5929094654707e-006
field stddev 6.7097840989666e-006
field sum 0.19224190568803
field sqrsum 2.7463390767333e-006
field min 4e-007
field max 4.1397184e-005
statistic Basic.rack[8].node[0].app 	hops
field count 20040
field mean 3.0029441117764
field stddev 0.70849311077711
field sum 60179
field sqrsum 190773
field min 2
field max 4
statistic Basic.rack[8].node[1].app 	throughput
field count 19994
field mean 9997.5
field stddev 5771.9149768513
field sum 199890015
field sqrsum 2664467269945
field min 1
field max 19994
statistic Basic.rack[8].node[1].app 	"End-to-End Delay"
field count 19994
field mean 9.6264161357424e-006
field stddev 6.7480882763441e-006
field sum 0.19247056421803
field sqrsum 2.7632168958829e-006
field min 4e-007
field max 4.5198146e-005
statistic Basic.rack[8].node[1].app 	hops
field count 19994
field mean 3.0031509452836
field stddev 0.70838951857073
field sum 60045
field sqrsum 190357
field min 2
field max 4
statistic Basic.rack[8].node[2].app 	throughput
field count 19897
field mean 9949
field stddev 5743.9134887868
field sum 197955253
field sqrsum 2625876431045
field min 1
field max 19897
statistic Basic.rack[8].node[2].app 	"End-to-End Delay"
field count 19897
field mean 9.5135074063947e-006
field stddev 6.7270295397785e-006
field sum 0.18929025686503
field sqrsum 2.7011664848763e-006
field min 4e-007
field max 4.2484656e-005
statistic Basic.rack[8].node[2].app 	hops
field count 19897
field mean 2.9907021158969
field stddev 0.70494547648816
field sum 59506
field sqrsum 187852
field min 2
field max 4
statistic Basic.rack[8].node[3].app 	throughput
field count 19878
field mean 9939.5
field stddev 5738.4286612277
field sum 197577381
field sqrsum 2618361312139
field min 1
field max 19878
statistic Basic.rack[8].node[3].app 	"End-to-End Delay"
field count 19878
field mean 9.6125018351462e-006
field stddev 6.7077679397565e-006
field sum 0.19107731147904
field sqrsum 2.7310797413793e-006
field min 4e-007
field max 4.7710721e-005
statistic Basic.rack[8].node[3].app 	hops
field count 19878
field mean 3.0005533755911
field stddev 0.70234136179111
field sum 59645
field sqrsum 188773
field min 2
field max 4
statistic Basic.rack[8].node[4].app 	throughput
field count 20009
field mean 10005
field stddev 5776.2451038715
field sum 200190045
field sqrsum 2670468470285
field min 1
field max 20009
statistic Basic.rack[8].node[4].app 	"End-to-End Delay"
field count 20009
field mean 9.6021593784314e-006
field stddev 6.7620849355735e-006
field sum 0.19212960700303
field sqrsum 2.7597407676181e-006
field min 4e-007
field max 4.7304783e-005
statistic Basic.rack[8].node[4].app 	hops
field count 20009
field mean 3.0007496626518
field stddev 0.707283067815
field sum 60042
field sqrsum 190180
field min 2
field max 4
statistic Basic.rack[8].node[5].app 	throughput
field count 19785
field mean 9893
field stddev 5711.5818737019
field sum 195733005
field sqrsum 2581783580285
field min 1
field max 19785
statistic Basic.rack[8].node[5].app 	"End-to-End Delay"
field count 19785
field mean 9.5938159031101e-006
field stddev 6.6843960566563e-006
field sum 0.18981364764303
field sqrsum 2.7050090756912e-006
field min 4e-007
field max 3.9017476e-005
statistic Basic.rack[8].node[5].app 	hops
field count 19785
field mean 3.001162496841
field stddev 0.7043483616549
field sum 59378
field sqrsum 188018
field min 2
field max 4
statistic Basic.rack[8].node[6].app 	throughput
field count 19723
field mean 9862
field stddev 5693.6840153513
field sum 194508226
field sqrsum 2557588663674
field min 1
field max 19723
statistic Basic.rack[8].node[6].app 	"End-to-End Delay"
field count 19723
field mean 9.5117479495023e-006
field stddev 6.7197666831424e-006
field sum 0.18760020480803
field sqrsum 2.6749579854577e-006
field min 4e-007
field max 4.0540702e-005
statistic Basic.rack[8].node[6].app 	hops
field count 19723
field mean 2.9935101150941
field stddev 0.70775791793176
field sum 59041
field sqrsum 186619
field min 2
field max 4
statistic Basic.rack[8].node[7].app 	throughput
field count 19938
field mean 9969.5
field stddev 5755.7491693089
field sum 198771891
field sqrsum 2642142232469
field min 1
field max 19938
statistic Basic.rack[8].node[7].app 	"End-to-End Delay"
field count 19938
field mean 9.5315833354416e-006
field stddev 6.683628974209e-006
field sum 0.19004070854204
field sqrsum 2.7019925094278e-006
field min 4e-007
field max 4.0063134e-005
statistic Basic.rack[8].node[7].app 	hops
field count 19938
field mean 2.9950346072826
field stddev 0.70362272480603
field sum 59715
field sqrsum 188719
field min 2
field max 4
statistic Basic.rack[8].node[8].app 	throughput
field count 19867
field mean 9934
field stddev 5735.2532347462
field sum 197358778
field sqrsum 2614017014610
field min 1
field max 19867
statistic Basic.rack[8].node[8].app 	"End-to-End Delay"
field count 19867
field mean 9.5311221171809e-006
field stddev 6.7672043665339e-006
field sum 0.18935480310203
field sqrsum 2.7145283132472e-006
field min 4e-007
field max 4.8255212e-005
statistic Basic.rack[8].node[8].app 	hops
field count 19867
field mean 2.9944128454221
field stddev 0.71148478713721
field sum 59490
field sqrsum 188194
field min 2
field max 4
statistic Basic.rack[8].node[9].app 	throughput
field count 20059
field mean 10030
field stddev 5790.6788606058
field sum 201191770
field sqrsum 2690537540210
field min 1
field max 20059
statistic Basic.rack[8].node[9].app 	"End-to-End Delay"
field count 20059
field mean 9.64962309891e-006
field stddev 6.7565508340216e-006
field sum 0.19356178974104
field sqrsum 2.7834656575978e-006
field min 4e-007
field max 4.5991799e-005
statistic Basic.rack[8].node[9].app 	hops
field count 20059
field mean 3.0080761752829
field stddev 0.71117357670068
field sum 60339
field sqrsum 191649
field min 2
field max 4
statistic Basic.rack[8].eps.queue[0] 	dropsum
field count 0
field mean nan
field stddev nan
field sum 0
field sqrsum 0
field min nan
field max nan
statistic Basic.rack[8].eps.queue[1] 	dropsum
field count 0
field mean nan
field stddev nan
field sum 0
field sqrsum 0
field min nan
field max nan
statistic Basic.rack[8].eps.queue[2] 	dropsum
field count 0
field mean nan
field stddev nan
field sum 0
field sqrsum 0
field min nan
field max nan
statistic Basic.rack[8].eps.queue[3] 	dropsum
field count 0
field mean nan
field stddev nan
field sum 0
field sqrsum 0
field min nan
field max nan
statistic Basic.rack[9].node[0].app 	throughput
field count 20283
field mean 10142
field stddev 5855.3420907749
field sum 205710186
field sqrsum 2781681705154
field min 1
field max 20283
statistic Basic.rack[9].node[0].app 	"End-to-End Delay"
field count 20283
field mean 9.5716450294847e-006
field stddev 6.7548010749826e-006
field sum 0.19414167613304
field sqrsum 2.783668869819e-006
field min 4e-007
field max 4.2835502e-005
statistic Basic.rack[9].node[0].app 	hops
field count 20283
field mean 2.9971897648277
field stddev 0.71092589658877
field sum 60792
field sqrsum 192456
field min 2
field max 4
statistic Basic.rack[9].node[1].app 	throughput
field count 20032
field mean 10016.5
field stddev 5782.8846319693
field sum 200650528
field sqrsum 2679687801440
field min 1
field max 20032
statistic Basic.rack[9].node[1].app 	"End-to-End Delay"
field count 20032
field mean 9.5656927710182e-006
field stddev 6.6871983830078e-006
field sum 0.19161995758904
field sqrsum 2.7287363646549e-006
field min 4e-007
field max 4.591204e-005
statistic Basic.rack[9].node[1].app 	hops
field count 20032
field mean 2.998053115016
field stddev 0.70347646791195
field sum 60057
field sqrsum 189967
field min 2
field max 4
statistic Basic.rack[9].node[2].app 	throughput
field count 19901
field mean 9951
field stddev 5745.0681893255
field sum 198034851
field sqrsum 2627460391451
field min 1
field max 19901
statistic Basic.rack[9].node[2].app 	"End-to-End Delay"
field count 19901
field mean 9.5344798356885e-006
field stddev 6.6901939150652e-006
field sum 0.18974568321004
field sqrsum 2.6998244134364e-006
field min 4e-007
field max 3.9919984e-005
statistic Basic.rack[9].node[2].app 	hops
field count 19901
field mean 2.9944726395659
field stddev 0.70345136193675
field sum 59593
field sqrsum 188297
field min 2
field max 4
statistic Basic.rack[9].node[3].app 	throughput
field count 20032
field mean 10016.5
field stddev 5782.8846319693
field sum 200650528
field sqrsum 2679687801440
field min 1
field max 20032
statistic Basic.rack[9].node[3].app 	"End-to-End Delay"
field count 20032
field mean 9.6510969324598e-006
field stddev 6.6655484384017e-006
field sum 0.19333077375103
field sqrsum 2.7558220728078e-006
field min 4e-007
field max 3.7462023e-005
statistic Basic.rack[9].node[3].app 	hops
field count 20032
field mean 3.0089357028754
field stddev 0.70363528649709
field sum 60275
field sqrsum 191281
field min 2
field max 4
statistic Basic.rack[9].node[4].app 	throughput
field count 19961
field mean 9981
field stddev 5762.3886974067
field sum 199230741
field sqrsum 2651296290981
field min 1
field max 19961
statistic Basic.rack[9].node[4].app 	"End-to-End Delay"
field count 19961
field mean 9.5513353179216e-006
field stddev 6.7492933774997e-006
field sum 0.19065420428103
field sqrsum 2.7302393383271e-006
field min 4e-007
field max 4.4374665e-005
statistic Basic.rack[9].node[4].app 	hops
field count 19961
field mean 2.9967937478082
field stddev 0.71006910668295
field sum 59819
field sqrsum 189329
field min 2
field max 4
statistic Basic.rack[9].node[5].app 	throughput
field count 20240
field mean 10120.5
field stddev 5842.9290599835
field sum 204838920
field sqrsum 2764028106840
field min 1
field max 20240
statistic Basic.rack[9].node[5].app 	"End-to-End Delay"
field count 20240
field mean 9.6136867276698e-006
field stddev 6.7290061470966e-006
field sum 0.19458101936804
field sqrsum 2.7870532440791e-006
field min 4e-007
field max 5.345291e-005
statistic Basic.rack[9].node[5].app 	hops
field count 20240
field mean 3.0036561264822
field stddev 0.70788300381091
field sum 60794
field sqrsum 192746
field min 2
field max 4
statistic Basic.rack[9].node[6].app 	throughput
field count 20044
field mean 10022.5
field stddev 5786.3487335855
field sum 200890990
field sqrsum 2684506299370
field min 1
field max 20044
statistic Basic.rack[9].node[6].app 	"End-to-End Delay"
field count 20044
field mean 9.577904458992e-006
field stddev 6.6938674452255e-006
field sum 0.19197951697604
field sqrsum 2.736845437204e-006
field min 4e-007
field max 4.5627478e-005
statistic Basic.rack[9].node[6].app 	hops
field count 20044
field mean 3.0024945120734
field stddev 0.70563675412917
field sum 60182
field sqrsum 190676
field min 2
field max 4
statistic Basic.rack[9].node[7].app 	throughput
field count 19944
field mean 9972.5
field stddev 5757.481220117
field sum 198891540
field sqrsum 2644528213020
field min 1
field max 19944
statistic Basic.rack[9].node[7].app 	"End-to-End Delay"
field count 19944
field mean 9.517225570449e-006
field stddev 6.7425226370481e-006
field sum 0.18981154677703
field sqrsum 2.7131202249188e-006
field min 4e-007
field max 4.0418903e-005
statistic Basic.rack[9].node[7].app 	hops
field count 19944
field mean 2.9935820296831
field stddev 0.70801666268152
field sum 59704
field sqrsum 188726
field min 2
field max 4
statistic Basic.rack[9].node[8].app 	throughput
field count 19909
field mean 9955
field stddev 5747.377590403
field sum 198194095
field sqrsum 2630630222935
field min 1
field max 19909
statistic Basic.rack[9].node[8].app 	"End-to-End Delay"
field count 19909
field mean 9.6183405822007e-006
field stddev 6.7108058970087e-006
field sum 0.19149154265103
field sqrsum 2.7383859793227e-006
field min 4e-007
field max 4.1727974e-005
statistic Basic.rack[9].node[8].app 	hops
field count 19909
field mean 3.0025114269928
field stddev 0.7063204719064
field sum 59777
field sqrsum 189413
field min 2
field max 4
statistic Basic.rack[9].node[9].app 	throughput
field count 20020
field mean 10010.5
field stddev 5779.4205303531
field sum 200410210
field sqrsum 2674875072870
field min 1
field max 20020
statistic Basic.rack[9].node[9].app 	"End-to-End Delay"
field count 20020
field mean 9.5995308368649e-006
field stddev 6.6914207055903e-006
field sum 0.19218260735403
field sqrsum 2.7412158138983e-006
field min 4e-007
field max 4.3823657e-005
statistic Basic.rack[9].node[9].app 	hops
field count 20020
field mean 3.0013486513487
field stddev 0.70439819090476
field sum 60087
field sqrsum 190275
field min 2
field max 4
statistic Basic.rack[9].eps.queue[0] 	dropsum
field count 0
field mean nan
field stddev nan
field sum 0
field sqrsum 0
field min nan
field max nan
statistic Basic.rack[9].eps.queue[1] 	dropsum
field count 0
field mean nan
field stddev nan
field sum 0
field sqrsum 0
field min nan
field max nan
statistic Basic.rack[9].eps.queue[2] 	dropsum
field count 0
field mean nan
field stddev nan
field sum 0
field sqrsum 0
field min nan
field max nan
statistic Basic.rack[9].eps.queue[3] 	dropsum
field count 0
field mean nan
field stddev nan
field sum 0
field sqrsum 0
field min nan
field max nan
statistic Basic.rack[10].node[0].app 	throughput
field count 20094
field mean 10047.5
field stddev 5800.7824903197
field sum 201894465
field sqrsum 2704645551295
field min 1
field max 20094
statistic Basic.rack[10].node[0].app 	"End-to-End Delay"
field count 20094
field mean 1.3947259846472e-005
field stddev 1.0309598759706e-005
field sum 0.28025623935501
field sqrsum 6.0444478934745e-006
field min 4e-007
field max 5.8566147e-005
statistic Basic.rack[10].node[0].app 	hops
field count 20094
field mean 3.4957201154574
field stddev 1.1177865044289
field sum 70243
field sqrsum 270655
field min 2
field max 5
statistic Basic.rack[10].node[1].app 	throughput
field count 19972
field mean 9986.5
field stddev 5765.5641238882
field sum 199450378
field sqrsum 2655681783070
field min 1
field max 19972
statistic Basic.rack[10].node[1].app 	"End-to-End Delay"
field count 19972
field mean 1.4008525082316e-005
field stddev 1.0304657536303e-005
field sum 0.27977826294401
field sqrsum 6.0399207597063e-006
field min 4e-007
field max 6.0833792e-005
statistic Basic.rack[10].node[1].app 	hops
field count 19972
field mean 3.5033046264771
field stddev 1.1193103839191
field sum 69968
field sqrsum 270140
field min 2
field max 5
statistic Basic.rack[10].node[2].app 	throughput
field count 19690
field mean 9845.5
field stddev 5684.1577359066
field sum 193857895
field sqrsum 2544772587665
field min 1
field max 19690
statistic Basic.rack[10].node[2].app 	"End-to-End Delay"
field count 19690
field mean 1.3991497320163e-005
field stddev 1.0273048047775e-005
field sum 0.27549258223401
field sqrsum 5.9324425043543e-006
field min 4e-007
field max 4.9598422e-005
statistic Basic.rack[10].node[2].app 	hops
field count 19690
field mean 3.4986287455561
field stddev 1.1135552209635
field sum 68888
field sqrsum 265428
field min 2
field max 5
statistic Basic.rack[10].node[3].app 	throughput
field count 19834
field mean 9917.5
field stddev 5725.7269553015
field sum 196703695
field sqrsum 2601012958985
field min 1
field max 19834
statistic Basic.rack[10].node[3].app 	"End-to-End Delay"
field count 19834
field mean 1.4053731000807e-005
field stddev 1.0287767522505e-005
field sum 0.27874170067001
field sqrsum 6.0164491190463e-006
field min 4e-007
field max 5.3783314e-005
statistic Basic.rack[10].node[3].app 	hops
field count 19834
field mean 3.5084703035192
field stddev 1.116947209078
field sum 69587
field sqrsum 268887
field min 2
field max 5
statistic Basic.rack[10].node[4].app 	throughput
field count 19968
field mean 9984.5
field stddev 5764.4094233495
field sum 199370496
field sqrsum 2654086499584
field min 1
field max 19968
statistic Basic.rack[10].node[4].app 	"End-to-End Delay"
field count 19968
field mean 1.3875059227865e-005
field stddev 1.0216257843353e-005
field sum 0.27705718266201
field sqrsum 5.9281790318755e-006
field min 4e-007
field max 5.4138219e-005
statistic Basic.rack[10].node[4].app 	hops
field count 19968
field mean 3.4888822115385
field stddev 1.1114021310029
field sum 69666
field sqrsum 267720
field min 2
field max 5
statistic Basic.rack[10].node[5].app 	throughput
field count 20092
field mean 10046.5
field stddev 5800.2051400504
field sum 201854278
field sqrsum 2703838053810
field min 1
field max 20092
statistic Basic.rack[10].node[5].app 	"End-to-End Delay"
field count 20092
field mean 1.4035241078788e-005
field stddev 1.0347128533886e-005
field sum 0.28199606375501
field sqrsum 6.1088868552754e-006
field min 4e-007
field max 5.8209345e-005
statistic Basic.rack[10].node[5].app 	hops
field count 20092
field mean 3.5061716105913
field stddev 1.1248354664365
field sum 70446
field sqrsum 272416
field min 2
field max 5
statistic Basic.rack[10].node[6].app 	throughput
field count 20038
field mean 10019.5
field stddev 5784.6166827774
field sum 200770741
field sqrsum 2682096329019
field min 1
field max 20038
statistic Basic.rack[10].node[6].app 	"End-to-End Delay"
field count 20038
field mean 1.3783826199821e-005
field stddev 1.0192036799817e-005
field sum 0.27620030939201
field sqrsum 5.8884928152954e-006
field min 4e-007
field max 5.3422013e-005
statistic Basic.rack[10].node[6].app 	hops
field count 20038
field mean 3.4814352729813
field stddev 1.1119542606885
field sum 69761
field sqrsum 267643
field min 2
field max 5
statistic Basic.rack[10].node[7].app 	throughput
field count 20000
field mean 10000.5
field stddev 5773.6470276594
field sum 200010000
field sqrsum 2666866670000
field min 1
field max 20000
statistic Basic.rack[10].node[7].app 	"End-to-End Delay"
field count 20000
field mean 1.4080076336301e-005
field stddev 1.028656859441e-005
field sum 0.28160152672601
field sqrsum 6.0811350481775e-006
field min 4e-007
field max 4.8735462e-005
statistic Basic.rack[10].node[7].app 	hops
field count 20000
field mean 3.51195
field stddev 1.1182663920042
field sum 70239
field sqrsum 271685
field min 2
field max 5
statistic Basic.rack[10].node[8].app 	throughput
field count 20165
field mean 10083
field stddev 5821.2784248823
field sum 203323695
field sqrsum 2733415981015
field min 1
field max 20165
statistic Basic.rack[10].node[8].app 	"End-to-End Delay"
field count 20165
field mean 1.3870855698885e-005
field stddev 1.0273662089207e-005
field sum 0.27970580516801
field sqrsum 6.0080314098567e-006
field min 4e-007
field max 5.8676358e-005
statistic Basic.rack[10].node[8].app 	hops
field count 20165
field mean 3.4866352591123
field stddev 1.1158727524762
field sum 70308
field sqrsum 270246
field min 2
field max 5
statistic Basic.rack[10].node[9].app 	throughput
field count 19898
field mean 9949.5
field stddev 5744.2021639215
field sum 197975151
field sqrsum 2626272361449
field min 1
field max 19898
statistic Basic.rack[10].node[9].app 	"End-to-End Delay"
field count 19898
field mean 1.3903480612977e-005
field stddev 1.0307197498979e-005
field sum 0.27665145723701
field sqrsum 5.9602420309165e-006
field min 4e-007
field max 5.7663553e-005
statistic Basic.rack[10].node[9].app 	hops
field count 19898
field mean 3.492461553925
field stddev 1.1194293368325
field sum 69493
field sqrsum 267635
field min 2
field max 5
statistic Basic.rack[10].eps.queue[0] 	dropsum
field count 0
field mean nan
field stddev nan
field sum 0
field sqrsum 0
field min nan
field max nan
statistic Basic.rack[10].eps.queue[1] 	dropsum
field count 0
field mean nan
field stddev nan
field sum 0
field sqrsum 0
field min nan
field max nan
statistic Basic.rack[10].eps.queue[2] 	dropsum
field count 0
field mean nan
field stddev nan
field sum 0
field sqrsum 0
field min nan
field max nan
statistic Basic.rack[10].eps.queue[3] 	dropsum
field count 0
field mean nan
field stddev nan
field sum 0
field sqrsum 0
field min nan
field max nan
statistic Basic.rack[11].node[0].app 	throughput
field count 20244
field mean 10122.5
field stddev 5844.0837605223
field sum 204919890
field sqrsum 2765667142070
field min 1
field max 20244
statistic Basic.rack[11].node[0].app 	"End-to-End Delay"
field count 20244
field mean 1.3975381225796e-005
field stddev 1.0299970900547e-005
field sum 0.28291761753501
field sqrsum 6.1014492959221e-006
field min 4e-007
field max 4.970088e-005
statistic Basic.rack[11].node[0].app 	hops
field count 20244
field mean 3.4993578344201
field stddev 1.1194302678059
field sum 70841
field sqrsum 273265
field min 2
field max 5
statistic Basic.rack[11].node[1].app 	throughput
field count 20252
field mean 10126.5
field stddev 5846.3931615997
field sum 205081878
field sqrsum 2768947156130
field min 1
field max 20252
statistic Basic.rack[11].node[1].app 	"End-to-End Delay"
field count 20252
field mean 1.4077785353694e-005
field stddev 1.0327820304879e-005
field sum 0.28510330898301
field sqrsum 6.173673264423e-006
field min 4e-007
field max 5.1307859e-005
statistic Basic.rack[11].node[1].app 	hops
field count 20252
field mean 3.5081473434722
field stddev 1.1185617861897
field sum 71047
field sqrsum 274581
field min 2
field max 5
statistic Basic.rack[11].node[2].app 	throughput
field count 20000
field mean 10000.5
field stddev 5773.6470276594
field sum 200010000
field sqrsum 2666866670000
field min 1
field max 20000
statistic Basic.rack[11].node[2].app 	"End-to-End Delay"
field count 20000
field mean 1.39449311887e-005
field stddev 1.0347592726153e-005
field sum 0.27889862377401
field sqrsum 6.0305685490032e-006
field min 4e-007
field max 5.2377106e-005
statistic Basic.rack[11].node[2].app 	hops
field count 20000
field mean 3.49465
field stddev 1.1213537573899
field sum 69893
field sqrsum 269399
field min 2
field max 5
statistic Basic.rack[11].node[3].app 	throughput
field count 20039
field mean 10020
field stddev 5784.9053579121
field sum 200790780
field sqrsum 2682497890540
field min 1
field max 20039
statistic Basic.rack[11].node[3].app 	"End-to-End Delay"
field count 20039
field mean 1.4022210691302e-005
field stddev 1.0258943436822e-005
field sum 0.28099108004301
field sqrsum 6.0490338805147e-006
field min 4e-007
field max 5.7383275e-005
statistic Basic.rack[11].node[3].app 	hops
field count 20039
field mean 3.5058635660462
field stddev 1.1160137216711
field sum 70254
field sqrsum 271258
field min 2
field max 5
statistic Basic.rack[11].node[4].app 	throughput
field count 20120
field mean 10060.5
field stddev 5808.2880438215
field sum 202417260
field sqrsum 2715157653220
field min 1
field max 20120
statistic Basic.rack[11].node[4].app 	"End-to-End Delay"
field count 20120
field mean 1.3957729879971e-005
field stddev 1.0335549309305e-005
field sum 0.28082952518501
field sqrsum 6.0689262513179e-006
field min 4e-007
field max 5.9964344e-005
statistic Basic.rack[11].node[4].app 	hops
field count 20120
field mean 3.4968687872763
field stddev 1.1223170421935
field sum 70357
field sqrsum 271371
field min 2
field max 5
statistic Basic.rack[11].node[5].app 	throughput
[...]
field count 19940
field mean 9.5407690758794e-006
field stddev 6.7611646603435e-006
field sum 0.19024293537303
field sqrsum 2.7265423517957e-006
field min 4e-007
field max 4.6856845e-005
statistic Basic.rack[13].node[1].app 	hops
field count 19940
field mean 2.993630892678
field stddev 0.70706036231298
field sum 59693
field sqrsum 188667
field min 2
field max 4
statistic Basic.rack[13].node[2].app 	throughput
field count 19988
field mean 9994.5
field stddev 5770.1829260432
field sum 199770066
field sqrsum 2662069309494
field min 1
field max 19988
statistic Basic.rack[13].node[2].app 	"End-to-End Delay"
field count 19988
field mean 9.6244938193433e-006
field stddev 6.7078700584855e-006
field sum 0.19237438246103
field sqrsum 2.7508315276574e-006
field min 4e-007
field max 4.4562754e-005
statistic Basic.rack[13].node[2].app 	hops
field count 19988
field mean 3.0033019811887
field stddev 0.70534565042846
field sum 60030
field sqrsum 190232
field min 2
field max 4
statistic Basic.rack[13].node[3].app 	throughput
field count 20200
field mean 10100.5
field stddev 5831.3820545962
field sum 204030100
field sqrsum 2747673356700
field min 1
field max 20200
statistic Basic.rack[13].node[3].app 	"End-to-End Delay"
field count 20200
field mean 9.5992173911404e-006
field stddev 6.6627518857388e-006
field sum 0.19390419130104
field sqrsum 2.7580077994457e-006
field min 4e-007
field max 4.1142829e-005
statistic Basic.rack[13].node[3].app 	hops
field count 20200
field mean 3.0021287128713
field stddev 0.70449071459893
field sum 60643
field sqrsum 192083
field min 2
field max 4
statistic Basic.rack[13].node[4].app 	throughput
field count 20011
field mean 10006
field stddev 5776.8224541409
field sum 200230066
field sqrsum 2671269310506
field min 1
field max 20011
statistic Basic.rack[13].node[4].app 	"End-to-End Delay"
field count 20011
field mean 9.5983407024154e-006
field stddev 6.7197862797421e-006
field sum 0.19207239579603
field sqrsum 2.7471384025642e-006
field min 4e-007
field max 5.1556246e-005
statistic Basic.rack[13].node[4].app 	hops
field count 20011
field mean 3.0001998900605
field stddev 0.70508962857911
field sum 60037
field sqrsum 190071
field min 2
field max 4
statistic Basic.rack[13].node[5].app 	throughput
field count 19838
field mean 9919.5
field stddev 5726.8816558403
field sum 196783041
field sqrsum 2602586905919
field min 1
field max 19838
statistic Basic.rack[13].node[5].app 	"End-to-End Delay"
field count 19838
field mean 9.5706755151747e-006
field stddev 6.7039803208046e-006
field sum 0.18986306087003
field sqrsum 2.7086590243406e-006
field min 4e-007
field max 4.4602603e-005
statistic Basic.rack[13].node[5].app 	hops
field count 19838
field mean 3.0006048996875
field stddev 0.70594708123517
field sum 59526
field sqrsum 188500
field min 2
field max 4
statistic Basic.rack[13].node[6].app 	throughput
field count 20060
field mean 10030.5
field stddev 5790.9675357405
field sum 201211830
field sqrsum 2690939943810
field min 1
field max 20060
statistic Basic.rack[13].node[6].app 	"End-to-End Delay"
field count 20060
field mean 9.6865380273697e-006
field stddev 6.7145876464111e-006
field sum 0.19431195282904
field sqrsum 2.7865839210261e-006
field min 4e-007
field max 4.1414963e-005
statistic Basic.rack[13].node[6].app 	hops
field count 20060
field mean 3.0122133599202
field stddev 0.70564260674229
field sum 60425
field sqrsum 192001
field min 2
field max 4
statistic Basic.rack[13].node[7].app 	throughput
field count 19879
field mean 9940
field stddev 5738.7173363624
field sum 197597260
field sqrsum 2618756486780
field min 1
field max 19879
statistic Basic.rack[13].node[7].app 	"End-to-End Delay"
field count 19879
field mean 9.5944047532589e-006
field stddev 6.7215509994946e-006
field sum 0.19072717209003
field sqrsum 2.7279867750161e-006
field min 4e-007
field max 4.165324e-005
statistic Basic.rack[13].node[7].app 	hops
field count 19879
field mean 3.0015091302379
field stddev 0.70770964331
field sum 59667
field sqrsum 189047
field min 2
field max 4
statistic Basic.rack[13].node[8].app 	throughput
field count 20242
field mean 10121.5
field stddev 5843.5064102529
field sum 204879403
field sqrsum 2764847543485
field min 1
field max 20242
statistic Basic.rack[13].node[8].app 	"End-to-End Delay"
field count 20242
field mean 9.498787865183e-006
field stddev 6.6996529681535e-006
field sum 0.19227446396704
field sqrsum 2.7348987123128e-006
field min 4e-007
field max 3.7145767e-005
statistic Basic.rack[13].node[8].app 	hops
field count 20242
field mean 2.9915522181603
field stddev 0.70574496540404
field sum 60555
field sqrsum 191235
field min 2
field max 4
statistic Basic.rack[13].node[9].app 	throughput
field count 19965
field mean 9983
field stddev 5763.5433979454
field sum 199310595
field sqrsum 2652890456315
field min 1
field max 19965
statistic Basic.rack[13].node[9].app 	"End-to-End Delay"
field count 19965
field mean 9.5701868067636e-006
field stddev 6.7272282896742e-006
field sum 0.19106877959704
field sqrsum 2.7320467212952e-006
field min 4e-007
field max 4.0503458e-005
statistic Basic.rack[13].node[9].app 	hops
field count 19965
field mean 2.9985474580516
field stddev 0.70968617843631
field sum 59866
field sqrsum 189566
field min 2
field max 4
statistic Basic.rack[13].eps.queue[0] 	dropsum
field count 0
field mean nan
field stddev nan
field sum 0
field sqrsum 0
field min nan
field max nan
statistic Basic.rack[13].eps.queue[1] 	dropsum
field count 0
field mean nan
field stddev nan
field sum 0
field sqrsum 0
field min nan
field max nan
statistic Basic.rack[13].eps.queue[2] 	dropsum
field count 0
field mean nan
field stddev nan
field sum 0
field sqrsum 0
field min nan
field max nan
statistic Basic.rack[13].eps.queue[3] 	dropsum
field count 0
field mean nan
field stddev nan
field sum 0
field sqrsum 0
field min nan
field max nan
statistic Basic.rack[14].node[0].app 	throughput
field count 20200
field mean 10100.5
field stddev 5831.3820545962
field sum 204030100
field sqrsum 2747673356700
field min 1
field max 20200
statistic Basic.rack[14].node[0].app 	"End-to-End Delay"
field count 20200
field mean 1.4038229091238e-005
field stddev 1.0278684687061e-005
field sum 0.28357222764301
field sqrsum 6.114903693906e-006
field min 4e-007
field max 5.9383195e-005
statistic Basic.rack[14].node[0].app 	hops
field count 20200
field mean 3.5042574257426
field stddev 1.115837361601
field sum 70786
field sqrsum 273202
field min 2
field max 5
statistic Basic.rack[14].node[1].app 	throughput
field count 20085
field mean 10043
field stddev 5798.1844141076
field sum 201713655
field sqrsum 2701013078335
field min 1
field max 20085
statistic Basic.rack[14].node[1].app 	"End-to-End Delay"
field count 20085
field mean 1.3969531718198e-005
field stddev 1.0338003406455e-005
field sum 0.28057804456001
field sqrsum 6.066007623961e-006
field min 4e-007
field max 6.6563997e-005
statistic Basic.rack[14].node[1].app 	hops
field count 20085
field mean 3.4978342046303
field stddev 1.1197729436474
field sum 70254
field sqrsum 270920
field min 2
field max 5
statistic Basic.rack[14].node[2].app 	throughput
field count 19741
field mean 9871
field stddev 5698.8801677757
field sum 194863411
field sqrsum 2564597352171
field min 1
field max 19741
statistic Basic.rack[14].node[2].app 	"End-to-End Delay"
field count 19741
field mean 1.3893172008207e-005
field stddev 1.0320597665524e-005
field sum 0.27426510861401
field sqrsum 5.9130132218911e-006
field min 4e-007
field max 5.7032933e-005
statistic Basic.rack[14].node[2].app 	hops
field count 19741
field mean 3.4904513449167
field stddev 1.1206690829324
field sum 68905
field sqrsum 265301
field min 2
field max 5
statistic Basic.rack[14].node[3].app 	throughput
field count 19951
field mean 9976
field stddev 5759.5019460598
field sum 199031176
field sqrsum 2647313671976
field min 1
field max 19951
statistic Basic.rack[14].node[3].app 	"End-to-End Delay"
field count 19951
field mean 1.3862859395169e-005
field stddev 1.0304793563572e-005
field sum 0.27657790779301
field sqrsum 5.9526266167817e-006
field min 4e-007
field max 6.4470666e-005
statistic Basic.rack[14].node[3].app 	hops
field count 19951
field mean 3.4878953435918
field stddev 1.1208398821318
field sum 69587
field sqrsum 267775
field min 2
field max 5
statistic Basic.rack[14].node[4].app 	throughput
field count 20128
field mean 10064.5
field stddev 5810.597444899
field sum 202578256
field sqrsum 2718397617264
field min 1
field max 20128
statistic Basic.rack[14].node[4].app 	"End-to-End Delay"
field count 20128
field mean 1.404275519227e-005
field stddev 1.0264753003421e-005
field sum 0.28265257651001
field sqrsum 6.0899053954051e-006
field min 4e-007
field max 5.7454132e-005
statistic Basic.rack[14].node[4].app 	hops
field count 20128
field mean 3.5072038950715
field stddev 1.1162595785364
field sum 70593
field sqrsum 272663
field min 2
field max 5
statistic Basic.rack[14].node[5].app 	throughput
field count 19964
field mean 9982.5
field stddev 5763.2547228107
field sum 199290630
field sqrsum 2652491855090
field min 1
field max 19964
statistic Basic.rack[14].node[5].app 	"End-to-End Delay"
field count 19964
field mean 1.3945922875126e-005
field stddev 1.0290696809158e-005
field sum 0.27841640427901
field sqrsum 5.9968242752948e-006
field min 4e-007
field max 5.3006861e-005
statistic Basic.rack[14].node[5].app 	hops
field count 19964
field mean 3.4956421558806
field stddev 1.1180534978625
field sum 69787
field sqrsum 268905
field min 2
field max 5
statistic Basic.rack[14].node[6].app 	throughput
field count 20167
field mean 10084
field stddev 5821.8557751517
field sum 203364028
field sqrsum 2734229356460
field min 1
field max 20167
statistic Basic.rack[14].node[6].app 	"End-to-End Delay"
field count 20167
field mean 1.3925300412754e-005
field stddev 1.0299282796378e-005
field sum 0.28083153342401
field sqrsum 6.0497764782348e-006
field min 4e-007
field max 5.1568504e-005
statistic Basic.rack[14].node[6].app 	hops
field count 20167
field mean 3.4927852432191
field stddev 1.1187700156674
field sum 70439
field sqrsum 271269
field min 2
field max 5
statistic Basic.rack[14].node[7].app 	throughput
field count 20184
field mean 10092.5
field stddev 5826.7632524413
field sum 203707020
field sqrsum 2741149563460
field min 1
field max 20184
statistic Basic.rack[14].node[7].app 	"End-to-End Delay"
field count 20184
field mean 1.4015307828528e-005
field stddev 1.0284147784297e-005
field sum 0.28288497321101
field sqrsum 6.0993486489061e-006
field min 4e-007
field max 5.0540217e-005
statistic Basic.rack[14].node[7].app 	hops
field count 20184
field mean 3.5020313119302
field stddev 1.1154422003823
field sum 70685
field sqrsum 272653
field min 2
field max 5
statistic Basic.rack[14].node[8].app 	throughput
field count 20215
field mean 10108
field stddev 5835.7121816165
field sum 204333220
field sqrsum 2753798805940
field min 1
field max 20215
statistic Basic.rack[14].node[8].app 	"End-to-End Delay"
field count 20215
field mean 1.4012856700916e-005
field stddev 1.0322936860413e-005
field sum 0.28326989820901
field sqrsum 6.1234854872081e-006
field min 4e-007
field max 6.1907573e-005
statistic Basic.rack[14].node[8].app 	hops
field count 20215
field mean 3.5049715557754
field stddev 1.1204594696396
field sum 70853
field sqrsum 273715
field min 2
field max 5
statistic Basic.rack[14].node[9].app 	throughput
field count 19750
field mean 9875.5
field stddev 5701.4782439878
field sum 195041125
field sqrsum 2568106492875
field min 1
field max 19750
statistic Basic.rack[14].node[9].app 	"End-to-End Delay"
field count 19750
field mean 1.3942523377317e-005
field stddev 1.0312406069456e-005
field sum 0.27536483670201
field sqrsum 5.9395022763815e-006
field min 4e-007
field max 5.3473137e-005
statistic Basic.rack[14].node[9].app 	hops
field count 19750
field mean 3.493417721519
field stddev 1.1192198222294
field sum 68995
field sqrsum 265767
field min 2
field max 5
statistic Basic.rack[14].eps.queue[0] 	dropsum
field count 0
field mean nan
field stddev nan
field sum 0
field sqrsum 0
field min nan
field max nan
statistic Basic.rack[14].eps.queue[1] 	dropsum
field count 0
field mean nan
field stddev nan
field sum 0
field sqrsum 0
field min nan
field max nan
statistic Basic.rack[14].eps.queue[2] 	dropsum
field count 0
field mean nan
field stddev nan
field sum 0
field sqrsum 0
field min nan
field max nan
statistic Basic.rack[14].eps.queue[3] 	dropsum
field count 0
field mean nan
field stddev nan
field sum 0
field sqrsum 0
field min nan
field max nan
statistic Basic.rack[15].node[0].app 	throughput
field count 20079
field mean 10040
field stddev 5796.4523632995
field sum 201593160
field sqrsum 2698593237480
field min 1
field max 20079
statistic Basic.rack[15].node[0].app 	"End-to-End Delay"
field count 20079
field mean 1.3871596879427e-005
field stddev 1.033330770705e-005
field sum 0.27852779374201
field sqrsum 6.0074988632341e-006
field min 4e-007
field max 5.1043851e-005
statistic Basic.rack[15].node[0].app 	hops
field count 20079
field mean 3.487872902037
field stddev 1.1220205102773
field sum 70033
field sqrsum 269543
field min 2
field max 5
statistic Basic.rack[15].node[1].app 	throughput
field count 20076
field mean 10038.5
field stddev 5795.5863378954
field sum 201532926
field sqrsum 2697383859226
field min 1
field max 20076
statistic Basic.rack[15].node[1].app 	"End-to-End Delay"
field count 20076
field mean 1.4019339214834e-005
field stddev 1.0273336287096e-005
field sum 0.28145225407701
field sqrsum 6.0645189999256e-006
field min 4e-007
field max 5.8747222e-005
statistic Basic.rack[15].node[1].app 	hops
field count 20076
field mean 3.5023411038055
field stddev 1.1130134779723
field sum 70313
field sqrsum 271129
field min 2
field max 5
statistic Basic.rack[15].node[2].app 	throughput
field count 19657
field mean 9829
field stddev 5674.6314564619
field sum 193208653
field sqrsum 2531999397565
field min 1
field max 19657
statistic Basic.rack[15].node[2].app 	"End-to-End Delay"
field count 19657
field mean 1.394214409854e-005
field stddev 1.0311862270021e-005
field sum 0.27406072654501
field sqrsum 5.911105141563e-006
field min 4e-007
field max 5.360175e-005
statistic Basic.rack[15].node[2].app 	hops
field count 19657
field mean 3.4937681233148
field stddev 1.1179312949803
field sum 68677
field sqrsum 264507
field min 2
field max 5
statistic Basic.rack[15].node[3].app 	throughput
field count 20094
field mean 10047.5
field stddev 5800.7824903197
field sum 201894465
field sqrsum 2704645551295
field min 1
field max 20094
statistic Basic.rack[15].node[3].app 	"End-to-End Delay"
field count 20094
field mean 1.3948354778542e-005
field stddev 1.0306952063005e-005
field sum 0.28027824092001
field sqrsum 6.0439652508967e-006
field min 4e-007
field max 5.665791e-005
statistic Basic.rack[15].node[3].app 	hops
field count 20094
field mean 3.4974121628347
field stddev 1.118103327353
field sum 70277
field sqrsum 270907
field min 2
field max 5
statistic Basic.rack[15].node[4].app 	throughput
field count 19531
field mean 9766
field stddev 5638.2583894911
field sum 190739746
field sqrsum 2483622232666
field min 1
field max 19531
statistic Basic.rack[15].node[4].app 	"End-to-End Delay"
field count 19531
field mean 1.3900994386002e-005
field stddev 1.0281446122865e-005
field sum 0.27150032135301
field sqrsum 5.8386043073162e-006
field min 4e-007
field max 5.2761867e-005
statistic Basic.rack[15].node[4].app 	hops
field count 19531
field mean 3.495059136757
field stddev 1.1206819207843
field sum 68262
field sqrsum 263108
field min 2
field max 5
statistic Basic.rack[15].node[5].app 	throughput
field count 20063
field mean 10032
field stddev 5791.8335611445
field sum 201272016
field sqrsum 2692147395344
field min 1
field max 20063
statistic Basic.rack[15].node[5].app 	"End-to-End Delay"
field count 20063
field mean 1.4119641115736e-005
field stddev 1.0354272215228e-005
field sum 0.28328235970501
field sqrsum 6.1507113946872e-006
field min 4e-007
field max 7.2246662e-005
statistic Basic.rack[15].node[5].app 	hops
field count 20063
field mean 3.5117878682151
field stddev 1.1191805736669
field sum 70457
field sqrsum 272559
field min 2
field max 5
statistic Basic.rack[15].node[6].app 	throughput
field count 20062
field mean 10031.5
field stddev 5791.5448860098
field sum 201251953
field sqrsum 2691744871375
field min 1
field max 20062
statistic Basic.rack[15].node[6].app 	"End-to-End Delay"
field count 20062
field mean 1.4155712424335e-005
field stddev 1.0290517142522e-005
field sum 0.28399190265701
field sqrsum 6.1444621453897e-006
field min 4e-007
field max 5.0446849e-005
statistic Basic.rack[15].node[6].app 	hops
field count 20062
field mean 3.5215830924135
field stddev 1.1221262254703
field sum 70650
field sqrsum 274060
field min 2
field max 5
statistic Basic.rack[15].node[7].app 	throughput
field count 20103
field mean 10052
field stddev 5803.3805665319
field sum 202075356
field sqrsum 2708281279564
field min 1
field max 20103
statistic Basic.rack[15].node[7].app 	"End-to-End Delay"
field count 20103
field mean 1.3993386949212e-005
field stddev 1.0318881153331e-005
field sum 0.28130905784001
field sqrsum 6.0769135532471e-006
field min 4e-007
field max 5.6975247e-005
statistic Basic.rack[15].node[7].app 	hops
field count 20103
field mean 3.4995771775357
field stddev 1.1182174333004
field sum 70352
field sqrsum 271338
field min 2
field max 5
statistic Basic.rack[15].node[8].app 	throughput
field count 19814
field mean 9907.5
field stddev 5719.9534526078
field sum 196307205
field sqrsum 2593152742315
field min 1
field max 19814
statistic Basic.rack[15].node[8].app 	"End-to-End Delay"
field count 19814
field mean 1.4005968478854e-005
field stddev 1.0298241603571e-005
field sum 0.27751425944001
field sqrsum 5.9880995157763e-006
field min 4e-007
field max 5.2840775e-005
statistic Basic.rack[15].node[8].app 	hops
field count 19814
field mean 3.502119713334
field stddev 1.1168858746691
field sum 69391
field sqrsum 267731
field min 2
field max 5
statistic Basic.rack[15].node[9].app 	throughput
field count 19672
field mean 9836.5
field stddev 5678.9615834822
field sum 193503628
field sqrsum 2537800081220
field min 1
field max 19672
statistic Basic.rack[15].node[9].app 	"End-to-End Delay"
field count 19672
field mean 1.3918692514031e-005
field stddev 1.0288206733622e-005
field sum 0.27380851913601
field sqrsum 5.893176813377e-006
field min 4e-007
field max 5.0651394e-005
statistic Basic.rack[15].node[9].app 	hops
field count 19672
field mean 3.495018300122
field stddev 1.1194145354203
field sum 68754
field sqrsum 264946
field min 2
field max 5
statistic Basic.rack[15].eps.queue[0] 	dropsum
field count 0
field mean nan
field stddev nan
field sum 0
field sqrsum 0
field min nan
field max nan
statistic Basic.rack[15].eps.queue[1] 	dropsum
field count 0
field mean nan
field stddev nan
field sum 0
field sqrsum 0
field min nan
field max nan
statistic Basic.rack[15].eps.queue[2] 	dropsum
field count 0
field mean nan
field stddev nan
field sum 0
field sqrsum 0
field min nan
field max nan
statistic Basic.rack[15].eps.queue[3] 	dropsum
field count 0
field mean nan
field stddev nan
field sum 0
field sqrsum 0
field min nan
field max nan
