version 2
run Basic-2-20180510-15:56:32-16928
attr configname Basic
attr datetime 20180510-15:56:32
attr experiment Basic
attr inifile omnetpp.ini
attr iterationvars "$0=exponential(0.5 ms), $1=4, $2=4"
attr iterationvarsf exponential(0.5_ms),4,4-
attr measurement "$0=exponential(0.5 ms), $1=4, $2=4"
attr network Networks.Basic
attr processid 16928
attr repetition 0
attr replication #0
attr resultdir results
attr runnumber 2
attr seedset 2
param **.frameCapacity 50
param **.packetLength "1024 bytes"
param **.pattern 4
param **.sendIaTime "exponential(0.5 ms)"
param **.tp 4

statistic Basic.rack[0].node[0].app 	throughput
field count 20121
field mean 10061
field stddev 5808.5767189562
field sum 202437381
field sqrsum 2715562507861
field min 1
field max 20121
statistic Basic.rack[0].node[0].app 	"End-to-End Delay"
field count 20121
field mean 1.9110435603846e-005
field stddev 6.8861769544077e-006
field sum 0.38452107478498
field sqrsum 8.3024442309141e-006
field min 9.4416e-006
field max 5.8783163e-005
statistic Basic.rack[0].node[0].app 	hops
field count 20121
field mean 5.0027831618707
field stddev 0.70308338740783
field sum 100661
field sqrsum 513531
field min 4
field max 6
statistic Basic.rack[0].node[1].app 	throughput
field count 19980
field mean 9990.5
field stddev 5767.8735249657
field sum 199610190
field sqrsum 2658874267530
field min 1
field max 19980
statistic Basic.rack[0].node[1].app 	"End-to-End Delay"
field count 19980
field mean 1.9179911307056e-005
field stddev 6.8752285796791e-006
field sum 0.38321462791498
field sqrsum 8.2944052913041e-006
field min 9.4416e-006
field max 5.4753602e-005
statistic Basic.rack[0].node[1].app 	hops
field count 19980
field mean 5.0024024024024
field stddev 0.70371457932449
field sum 99948
field sqrsum 509874
field min 4
field max 6
statistic Basic.rack[0].node[2].app 	throughput
field count 19966
field mean 9983.5
field stddev 5763.8320730801
field sum 199330561
field sqrsum 2653289097471
field min 1
field max 19966
statistic Basic.rack[0].node[2].app 	"End-to-End Delay"
field count 19966
field mean 1.9138959514223e-005
field stddev 6.8633237574984e-006
field sum 0.38212846566098
field sqrsum 8.2539968110676e-006
field min 9.4416e-006
field max 6.674204e-005
statistic Basic.rack[0].node[2].app 	hops
field count 19966
field mean 4.9939897826305
field stddev 0.70507724616608
field sum 99710
field sqrsum 507876
field min 4
field max 6
statistic Basic.rack[0].node[3].app 	throughput
field count 20027
field mean 10014
field stddev 5781.4412562959
field sum 200550378
field sqrsum 2677681796930
field min 1
field max 20027
statistic Basic.rack[0].node[3].app 	"End-to-End Delay"
field count 20027
field mean 1.9217397457482e-005
field stddev 6.8477594692549e-006
field sum 0.38486681888098
field sqrsum 8.3351940086613e-006
field min 9.4416e-006
field max 6.7378996e-005
statistic Basic.rack[0].node[3].app 	hops
field count 20027
field mean 5.000798921456
field stddev 0.70707101949397
field sum 100151
field sqrsum 510847
field min 4
field max 6
statistic Basic.rack[0].node[4].app 	throughput
field count 20006
field mean 10003.5
field stddev 5775.3790784675
field sum 200130021
field sqrsum 2669267510091
field min 1
field max 20006
statistic Basic.rack[0].node[4].app 	"End-to-End Delay"
field count 20006
field mean 1.9143056771418e-005
field stddev 6.8741744189562e-006
field sum 0.38297599376898
field sqrsum 8.276652941024e-006
field min 9.4416e-006
field max 7.2509703e-005
statistic Basic.rack[0].node[4].app 	hops
field count 20006
field mean 4.9894031790463
field stddev 0.70552337515469
field sum 99818
field sqrsum 507990
field min 4
field max 6
statistic Basic.rack[0].node[5].app 	throughput
field count 20237
field mean 10119
field stddev 5842.0630345795
field sum 204778203
field sqrsum 2762799255475
field min 1
field max 20237
statistic Basic.rack[0].node[5].app 	"End-to-End Delay"
field count 20237
field mean 1.9147367159954e-005
field stddev 6.8614192633928e-006
field sum 0.38748526921598
field sqrsum 8.3720148664498e-006
field min 9.4416e-006
field max 5.6623141e-005
statistic Basic.rack[0].node[5].app 	hops
field count 20237
field mean 4.99461382616
field stddev 0.70740069241201
field sum 101076
field sqrsum 514962
field min 4
field max 6
statistic Basic.rack[0].node[6].app 	throughput
field count 19837
field mean 9919
field stddev 5726.5929807056
field sum 196763203
field sqrsum 2602193359675
field min 1
field max 19837
statistic Basic.rack[0].node[6].app 	"End-to-End Delay"
field count 19837
field mean 1.9163247328829e-005
field stddev 6.8415725865313e-006
field sum 0.38014133726198
field sqrsum 8.2132084080638e-006
field min 9.4416e-006
field max 5.5396816e-005
statistic Basic.rack[0].node[6].app 	hops
field count 19837
field mean 5.0012098603619
field stddev 0.7066778442024
field sum 99209
field sqrsum 506071
field min 4
field max 6
statistic Basic.rack[0].node[7].app 	throughput
field count 20038
field mean 10019.5
field stddev 5784.6166827774
field sum 200770741
field sqrsum 2682096329019
field min 1
field max 20038
statistic Basic.rack[0].node[7].app 	"End-to-End Delay"
field count 20038
field mean 1.9231054455085e-005
field stddev 6.8503685441721e-006
field sum 0.38535186917098
field sqrsum 8.3510100835355e-006
field min 9.4416e-006
field max 5.8394509e-005
statistic Basic.rack[0].node[7].app 	hops
field count 20038
field mean 5.0030941211698
field stddev 0.70665874370256
field sum 100252
field sqrsum 511576
field min 4
field max 6
statistic Basic.rack[0].node[8].app 	throughput
field count 19948
field mean 9974.5
field stddev 5758.6359206557
field sum 198971326
field sqrsum 2646119664474
field min 1
field max 19948
statistic Basic.rack[0].node[8].app 	"End-to-End Delay"
field count 19948
field mean 1.917425386575e-005
field stddev 6.8719907312863e-006
field sum 0.38248801611398
field sqrsum 8.2759045681938e-006
field min 9.4416e-006
field max 8.2068763e-005
statistic Basic.rack[0].node[8].app 	hops
field count 19948
field mean 4.9943854020453
field stddev 0.71084993033242
field sum 99628
field sqrsum 507660
field min 4
field max 6
statistic Basic.rack[0].node[9].app 	throughput
field count 20123
field mean 10062
field stddev 5809.1540692256
field sum 202477626
field sqrsum 2716372337874
field min 1
field max 20123
statistic Basic.rack[0].node[9].app 	"End-to-End Delay"
field count 20123
field mean 1.908697106649e-005
field stddev 6.8551197626678e-006
field sum 0.38408711877098
field sqrsum 8.2766461675729e-006
field min 9.4416e-006
field max 5.8761813e-005
statistic Basic.rack[0].node[9].app 	hops
field count 20123
field mean 4.9927446205834
field stddev 0.70780717055358
field sum 100469
field sqrsum 511697
field min 4
field max 6
statistic Basic.rack[0].eps.queue[0] 	dropsum
field count 0
field mean nan
field stddev nan
field sum 0
field sqrsum 0
field min nan
field max nan
statistic Basic.rack[0].eps.queue[1] 	dropsum
field count 0
field mean nan
field stddev nan
field sum 0
field sqrsum 0
field min nan
field max nan
statistic Basic.rack[0].eps.queue[2] 	dropsum
field count 0
field mean nan
field stddev nan
field sum 0
field sqrsum 0
field min nan
field max nan
statistic Basic.rack[0].eps.queue[3] 	dropsum
field count 0
field mean nan
field stddev nan
field sum 0
field sqrsum 0
field min nan
field max nan
statistic Basic.rack[1].node[0].app 	throughput
field count 20038
field mean 10019.5
field stddev 5784.6166827774
field sum 200770741
field sqrsum 2682096329019
field min 1
field max 20038
statistic Basic.rack[1].node[0].app 	"End-to-End Delay"
field count 20038
field mean 1.4574308698072e-005
field stddev 1.030792651436e-005
field sum 0.29203999769197
field sqrsum 6.3852794329702e-006
field min 8.496e-007
field max 4.9625032e-005
statistic Basic.rack[1].node[0].app 	hops
field count 20038
field mean 4.9966064477493
field stddev 0.70989868506548
field sum 100122
field sqrsum 510368
field min 4
field max 6
statistic Basic.rack[1].node[1].app 	throughput
field count 20023
field mean 10012
field stddev 5780.2865557571
field sum 200470276
field sqrsum 2676077714324
field min 1
field max 20023
statistic Basic.rack[1].node[1].app 	"End-to-End Delay"
field count 20023
field mean 1.4729122887728e-005
field stddev 1.0327221379939e-005
field sum 0.29492122758097
field sqrsum 6.4793073648764e-006
field min 8.496e-007
field max 5.7191518e-005
statistic Basic.rack[1].node[1].app 	hops
field count 20023
field mean 4.9954552264895
field stddev 0.70504080059028
field sum 100024
field sqrsum 509618
field min 4
field max 6
statistic Basic.rack[1].node[2].app 	throughput
field count 19779
field mean 9890
field stddev 5709.8498228938
field sum 195614310
field sqrsum 2579435496430
field min 1
field max 19779
statistic Basic.rack[1].node[2].app 	"End-to-End Delay"
field count 19779
field mean 1.4732392746396e-005
field stddev 1.0299754153378e-005
field sum 0.29139199613097
field sqrsum 6.3910491868508e-006
field min 8.496e-007
field max 5.141948e-005
statistic Basic.rack[1].node[2].app 	hops
field count 19779
field mean 5.0033368724405
field stddev 0.70541653434395
field sum 98961
field sqrsum 504977
field min 4
field max 6
statistic Basic.rack[1].node[3].app 	throughput
field count 20187
field mean 10094
field stddev 5827.6292778453
field sum 203767578
field sqrsum 2742371987250
field min 1
field max 20187
statistic Basic.rack[1].node[3].app 	"End-to-End Delay"
field count 20187
field mean 1.4671306379005e-005
field stddev 1.0235479014211e-005
field sum 0.29616966187297
field sqrsum 6.4599827582129e-006
field min 8.496e-007
field max 5.4158969e-005
statistic Basic.rack[1].node[3].app 	hops
field count 20187
field mean 5.0062911774905
field stddev 0.70511433057662
field sum 101062
field sqrsum 515982
field min 4
field max 6
statistic Basic.rack[1].node[4].app 	throughput
field count 20009
field mean 10005
field stddev 5776.2451038715
field sum 200190045
field sqrsum 2670468470285
field min 1
field max 20009
statistic Basic.rack[1].node[4].app 	"End-to-End Delay"
field count 20009
field mean 1.473408053121e-005
field stddev 1.0310154618355e-005
field sum 0.29481421734897
field sqrsum 6.470652579559e-006
field min 8.496e-007
field max 5.2700662e-005
statistic Basic.rack[1].node[4].app 	hops
field count 20009
field mean 5.0005997301214
field stddev 0.70391863136736
field sum 100057
field sqrsum 510259
field min 4
field max 6
statistic Basic.rack[1].node[5].app 	throughput
field count 20135
field mean 10068
field stddev 5812.6181708418
field sum 202719180
field sqrsum 2721234699260
field min 1
field max 20135
statistic Basic.rack[1].node[5].app 	"End-to-End Delay"
field count 20135
field mean 1.4750221658057e-005
field stddev 1.0323997571595e-005
field sum 0.29699571308497
field sqrsum 6.5267334967272e-006
field min 8.496e-007
field max 4.8510384e-005
statistic Basic.rack[1].node[5].app 	hops
field count 20135
field mean 5.0027315619568
field stddev 0.70780356228966
field sum 100730
field sqrsum 514012
field min 4
field max 6
statistic Basic.rack[1].node[6].app 	throughput
field count 19936
field mean 9968.5
field stddev 5755.1718190395
field sum 198732016
field sqrsum 2641347224656
field min 1
field max 19936
statistic Basic.rack[1].node[6].app 	"End-to-End Delay"
field count 19936
field mean 1.460738297562e-005
field stddev 1.0282160465773e-005
field sum 0.29121278700197
field sqrsum 6.3614412004638e-006
field min 8.496e-007
field max 5.7542001e-005
statistic Basic.rack[1].node[6].app 	hops
field count 19936
field mean 5.0014546548957
field stddev 0.70942481090526
field sum 99709
field sqrsum 508723
field min 4
field max 6
statistic Basic.rack[1].node[7].app 	throughput
field count 19804
field mean 9902.5
field stddev 5717.0667012609
field sum 196109110
field sqrsum 2589228579330
field min 1
field max 19804
statistic Basic.rack[1].node[7].app 	"End-to-End Delay"
field count 19804
field mean 1.4655372812208e-005
field stddev 1.0287937293356e-005
field sum 0.29023500317297
field sqrsum 6.3494844439036e-006
field min 8.496e-007
field max 5.0742897e-005
statistic Basic.rack[1].node[7].app 	hops
field count 19804
field mean 4.9972227832761
field stddev 0.70134688569685
field sum 98965
field sqrsum 504291
field min 4
field max 6
statistic Basic.rack[1].node[8].app 	throughput
field count 20079
field mean 10040
field stddev 5796.4523632995
field sum 201593160
field sqrsum 2698593237480
field min 1
field max 20079
statistic Basic.rack[1].node[8].app 	"End-to-End Delay"
field count 20079
field mean 1.4590342134866e-005
field stddev 1.0275591860804e-005
field sum 0.29295947972597
field sqrsum 6.3943706501218e-006
field min 8.496e-007
field max 5.388353e-005
statistic Basic.rack[1].node[8].app 	hops
field count 20079
field mean 4.9987051147966
field stddev 0.71093399887842
field sum 100369
field sqrsum 511863
field min 4
field max 6
statistic Basic.rack[1].node[9].app 	throughput
field count 20198
field mean 10099.5
field stddev 5830.8047043268
field sum 203989701
field sqrsum 2746857317099
field min 1
field max 20198
statistic Basic.rack[1].node[9].app 	"End-to-End Delay"
field count 20198
field mean 1.4645893198731e-005
field stddev 1.0291934942223e-005
field sum 0.29581775082797
field sqrsum 6.4718606952109e-006
field min 8.496e-007
field max 5.5873657e-005
statistic Basic.rack[1].node[9].app 	hops
field count 20198
field mean 5.0020794138033
field stddev 0.71057874303485
field sum 101032
field sqrsum 515568
field min 4
field max 6
statistic Basic.rack[1].eps.queue[0] 	dropsum
field count 0
field mean nan
field stddev nan
field sum 0
field sqrsum 0
field min nan
field max nan
statistic Basic.rack[1].eps.queue[1] 	dropsum
field count 0
field mean nan
field stddev nan
field sum 0
field sqrsum 0
field min nan
field max nan
statistic Basic.rack[1].eps.queue[2] 	dropsum
field count 0
field mean nan
field stddev nan
field sum 0
field sqrsum 0
field min nan
field max nan
statistic Basic.rack[1].eps.queue[3] 	dropsum
field count 0
field mean nan
field stddev nan
field sum 0
field sqrsum 0
field min nan
field max nan
statistic Basic.rack[2].node[0].app 	throughput
field count 20189
field mean 10095
field stddev 5828.2066281147
field sum 203807955
field sqrsum 2743187138315
field min 1
field max 20189
statistic Basic.rack[2].node[0].app 	"End-to-End Delay"
field count 20189
field mean 1.5257940671702e-005
field stddev 5.7104404017358e-006
field sum 0.30804256422099
field sqrsum 5.3584082772396e-006
field min 9.4416e-006
field max 5.2371147e-005
statistic Basic.rack[2].node[0].app 	hops
field count 20189
field mean 5.5011640001981
field stddev 0.50001102850901
field sum 111063
field sqrsum 616023
field min 5
field max 6
statistic Basic.rack[2].node[1].app 	throughput
field count 20114
field mean 10057.5
field stddev 5806.5559930134
field sum 202296555
field sqrsum 2712729370365
field min 1
field max 20114
statistic Basic.rack[2].node[1].app 	"End-to-End Delay"
field count 20114
field mean 1.5315772329273e-005
field stddev 5.7662918213017e-006
field sum 0.30806144463099
field sqrsum 5.3869586404779e-006
field min 9.4416e-006
field max 5.2628352e-005
statistic Basic.rack[2].node[1].app 	hops
field count 20114
field mean 5.5024858307646
field stddev 0.5000062500709
field sum 110677
field sqrsum 614027
field min 5
field max 6
statistic Basic.rack[2].node[2].app 	throughput
field count 19894
field mean 9947.5
field stddev 5743.0474633827
field sum 197895565
field sqrsum 2624688878595
field min 1
field max 19894
statistic Basic.rack[2].node[2].app 	"End-to-End Delay"
field count 19894
field mean 1.5206143097767e-005
field stddev 5.7047735434005e-006
field sum 0.30251101078699
field sqrsum 5.2474322871004e-006
field min 9.4416e-006
field max 5.3058031e-005
statistic Basic.rack[2].node[2].app 	hops
field count 19894
field mean 5.4997486679401
field stddev 0.50001250390738
field sum 109412
field sqrsum 606712
field min 5
field max 6
statistic Basic.rack[2].node[3].app 	throughput
field count 20051
field mean 10026
field stddev 5788.3694595283
field sum 201031326
field sqrsum 2687319755526
field min 1
field max 20051
statistic Basic.rack[2].node[3].app 	"End-to-End Delay"
field count 20051
field mean 1.5216825055857e-005
field stddev 5.7490021166045e-006
field sum 0.30511255919498
field sqrsum 5.3055174936161e-006
field min 9.4416e-006
field max 4.8798923e-005
statistic Basic.rack[2].node[3].app 	hops
field count 20051
field mean 5.4918457932273
field stddev 0.4999459715045
field sum 110117
field sqrsum 609757
field min 5
field max 6
statistic Basic.rack[2].node[4].app 	throughput
field count 20212
field mean 10106.5
field stddev 5834.8461562124
field sum 204272578
field sqrsum 2752572988550
field min 1
field max 20212
statistic Basic.rack[2].node[4].app 	"End-to-End Delay"
field count 20212
field mean 1.5270990741242e-005
field stddev 5.7215678262484e-006
field sum 0.30865726486199
field sqrsum 5.3751363691321e-006
field min 9.4416e-006
field max 5.8898521e-005
statistic Basic.rack[2].node[4].app 	hops
field count 20212
field mean 5.5018305956857
field stddev 0.50000901817406
field sum 111203
field sqrsum 616873
field min 5
field max 6
statistic Basic.rack[2].node[5].app 	throughput
field count 20186
field mean 10093.5
field stddev 5827.3406027106
field sum 203747391
field sqrsum 2741964472281
field min 1
field max 20186
statistic Basic.rack[2].node[5].app 	"End-to-End Delay"
field count 20186
field mean 1.5274842542653e-005
field stddev 5.7478067763073e-006
field sum 0.30833797156599
field sqrsum 5.3766715176531e-006
field min 9.4416e-006
field max 5.6167621e-005
statistic Basic.rack[2].node[5].app 	hops
field count 20186
field mean 5.5017834142475
field stddev 0.50000920462605
field sum 111059
field sqrsum 616069
field min 5
field max 6
statistic Basic.rack[2].node[6].app 	throughput
field count 20045
field mean 10023
field stddev 5786.6374087202
field sum 200911035
field sqrsum 2684908101395
field min 1
field max 20045
statistic Basic.rack[2].node[6].app 	"End-to-End Delay"
field count 20045
field mean 1.5245126549762e-005
field stddev 5.7648312751933e-006
field sum 0.30558856168998
field sqrsum 5.3248641520563e-006
field min 9.4416e-006
field max 5.0392113e-005
statistic Basic.rack[2].node[6].app 	hops
field count 20045
field mean 5.4982289847842
field stddev 0.50000933582183
field sum 110212
field sqrsum 610982
field min 5
field max 6
statistic Basic.rack[2].node[7].app 	throughput
field count 20115
field mean 10058
field stddev 5806.8446681481
field sum 202316670
field sqrsum 2713133983590
field min 1
field max 20115
statistic Basic.rack[2].node[7].app 	"End-to-End Delay"
field count 20115
field mean 1.5217718601043e-005
field stddev 5.6687099242453e-006
field sum 0.30610440965999
field sqrsum 5.3045595198803e-006
field min 9.4416e-006
field max 5.0393815e-005
statistic Basic.rack[2].node[7].app 	hops
field count 20115
field mean 5.496793437733
field stddev 0.50000214659645
field sum 110568
field sqrsum 612798
field min 5
field max 6
statistic Basic.rack[2].node[8].app 	throughput
field count 20212
field mean 10106.5
field stddev 5834.8461562124
field sum 204272578
field sqrsum 2752572988550
field min 1
field max 20212
statistic Basic.rack[2].node[8].app 	"End-to-End Delay"
field count 20212
field mean 1.5314375361913e-005
field stddev 5.7431588986449e-006
field sum 0.30953415481499
field sqrsum 5.4069593143134e-006
field min 9.4416e-006
field max 5.4829033e-005
statistic Basic.rack[2].node[8].app 	hops
field count 20212
field mean 5.5079160894518
field stddev 0.49994969939889
field sum 111326
field sqrsum 618226
field min 5
field max 6
statistic Basic.rack[2].node[9].app 	throughput
field count 20088
field mean 10044.5
field stddev 5799.0504395116
field sum 201773916
field sqrsum 2702223541044
field min 1
field max 20088
statistic Basic.rack[2].node[9].app 	"End-to-End Delay"
field count 20088
field mean 1.5270313244374e-005
field stddev 5.7336077080669e-006
field sum 0.30675005245299
field sqrsum 5.3445145960749e-006
field min 9.4416e-006
field max 5.1678522e-005
statistic Basic.rack[2].node[9].app 	hops
field count 20088
field mean 5.5017921146953
field stddev 0.50000923394027
field sum 110520
field sqrsum 613080
field min 5
field max 6
statistic Basic.rack[2].eps.queue[0] 	dropsum
field count 0
field mean nan
field stddev nan
field sum 0
field sqrsum 0
field min nan
field max nan
statistic Basic.rack[2].eps.queue[1] 	dropsum
field count 0
field mean nan
field stddev nan
field sum 0
field sqrsum 0
field min nan
field max nan
statistic Basic.rack[2].eps.queue[2] 	dropsum
field count 0
field mean nan
field stddev nan
field sum 0
field sqrsum 0
field min nan
field max nan
statistic Basic.rack[2].eps.queue[3] 	dropsum
field count 0
field mean nan
field stddev nan
field sum 0
field sqrsum 0
field min nan
field max nan
statistic Basic.rack[3].node[0].app 	throughput
field count 20080
field mean 10040.5
field stddev 5796.7410384342
field sum 201613240
field sqrsum 2698996443880
field min 1
field max 20080
statistic Basic.rack[3].node[0].app 	"End-to-End Delay"
field count 20080
field mean 1.9361109107321e-005
field stddev 7.2945434831544e-006
field sum 0.388771070875
field sqrsum 8.5954500323391e-006
field min 8.992e-006
field max 7.2112538e-005
statistic Basic.rack[3].node[0].app 	hops
field count 20080
field mean 4.5138944223108
field stddev 1.121000640138
field sum 90639
field sqrsum 434367
field min 3
field max 6
statistic Basic.rack[3].node[1].app 	throughput
field count 19808
field mean 9904.5
field stddev 5718.2214017997
field sum 196188336
field sqrsum 2590797769104
field min 1
field max 19808
statistic Basic.rack[3].node[1].app 	"End-to-End Delay"
field count 19808
field mean 1.93306649531e-005
field stddev 7.335484116673e-006
field sum 0.382901811391
field sqrsum 8.4675479702992e-006
field min 8.992e-006
field max 6.256364e-005
statistic Basic.rack[3].node[1].app 	hops
field count 19808
field mean 4.498334006462
field stddev 1.1191893018618
field sum 89103
field sqrsum 425625
field min 3
field max 6
statistic Basic.rack[3].node[2].app 	throughput
field count 20058
field mean 10029.5
field stddev 5790.3901854711
field sum 201171711
field sqrsum 2690135176729
field min 1
field max 20058
statistic Basic.rack[3].node[2].app 	"End-to-End Delay"
field count 20058
field mean 1.9405654414049e-005
field stddev 7.2344003275091e-006
field sum 0.389238616237
field sqrsum 8.6031442165129e-006
field min 8.992e-006
field max 6.6280046e-005
statistic Basic.rack[3].node[2].app 	hops
field count 20058
field mean 4.5159038787516
field stddev 1.1134800381762
field sum 90580
field sqrsum 433918
field min 3
field max 6
statistic Basic.rack[3].node[3].app 	throughput
field count 19889
field mean 9945
field stddev 5741.6040877093
field sum 197796105
field sqrsum 2622710420265
field min 1
field max 19889
statistic Basic.rack[3].node[3].app 	"End-to-End Delay"
field count 19889
field mean 1.9318153213183e-005
field stddev 7.3922165863484e-006
field sum 0.384218749257
field sqrsum 8.5091737617154e-006
field min 8.992e-006
field max 6.0493272e-005
statistic Basic.rack[3].node[3].app 	hops
field count 19889
field mean 4.4900698878777
field stddev 1.1163302027733
field sum 89303
field sqrsum 425761
field min 3
field max 6
statistic Basic.rack[3].node[4].app 	throughput
field count 20240
field mean 10120.5
field stddev 5842.9290599835
field sum 204838920
field sqrsum 2764028106840
field min 1
field max 20240
statistic Basic.rack[3].node[4].app 	"End-to-End Delay"
field count 20240
field mean 1.9307370925988e-005
field stddev 7.3165884795347e-006
field sum 0.390781187542
field sqrsum 8.6284009379567e-006
field min 8.992e-006
field max 6.1340044e-005
statistic Basic.rack[3].node[4].app 	hops
field count 20240
field mean 4.4910079051383
field stddev 1.1166103566634
field sum 90898
field sqrsum 433458
field min 3
field max 6
statistic Basic.rack[3].node[5].app 	throughput
field count 19821
field mean 9911
field stddev 5721.9741785506
field sum 196445931
field sqrsum 2595902014211
field min 1
field max 19821
statistic Basic.rack[3].node[5].app 	"End-to-End Delay"
field count 19821
field mean 1.9385552025831e-005
field stddev 7.4054051369561e-006
field sum 0.384241026704
field sqrsum 8.5356537139348e-006
field min 8.992e-006
field max 5.9743354e-005
statistic Basic.rack[3].node[5].app 	hops
field count 19821
field mean 4.4975026487059
field stddev 1.1151449472313
field sum 89145
field sqrsum 425577
field min 3
field max 6
statistic Basic.rack[3].node[6].app 	throughput
field count 20147
field mean 10074
field stddev 5816.082272458
field sum 202960878
field sqrsum 2726102859670
field min 1
field max 20147
statistic Basic.rack[3].node[6].app 	"End-to-End Delay"
field count 20147
field mean 1.9230143222266e-005
field stddev 7.3284912392974e-006
field sum 0.387429695499
field sqrsum 8.5323054003353e-006
field min 8.992e-006
field max 6.9164873e-005
statistic Basic.rack[3].node[6].app 	hops
field count 20147
field mean 4.4805678264754
field stddev 1.1165377389898
field sum 90270
field sqrsum 429576
field min 3
field max 6
statistic Basic.rack[3].node[7].app 	throughput
field count 19784
field mean 9892.5
field stddev 5711.2931985672
field sum 195713220
field sqrsum 2581392134060
field min 1
field max 19784
statistic Basic.rack[3].node[7].app 	"End-to-End Delay"
field count 19784
field mean 1.9293766626264e-005
field stddev 7.3241633243416e-006
field sum 0.381707878934
field sqrsum 8.4258094926482e-006
field min 8.992e-006
field max 6.2541666e-005
statistic Basic.rack[3].node[7].app 	hops
field count 19784
field mean 4.4929235746057
field stddev 1.1184014853561
field sum 88888
field sqrsum 424112
field min 3
field max 6
statistic Basic.rack[3].node[8].app 	throughput
field count 19817
field mean 9909
field stddev 5720.8194780119
field sum 196366653
field sqrsum 2594330763885
field min 1
field max 19817
statistic Basic.rack[3].node[8].app 	"End-to-End Delay"
field count 19817
field mean 1.9311467065197e-005
field stddev 7.371879575636e-006
field sum 0.38269534283101
field sqrsum 8.4673012706788e-006
field min 8.992e-006
field max 6.4928522e-005
statistic Basic.rack[3].node[8].app 	hops
field count 19817
field mean 4.4965938335772
field stddev 1.1189819091063
field sum 89109
field sqrsum 425499
field min 3
field max 6
statistic Basic.rack[3].node[9].app 	throughput
field count 19797
field mean 9899
field stddev 5715.0459753181
field sum 195970503
field sqrsum 2586484022095
field min 1
field max 19797
statistic Basic.rack[3].node[9].app 	"End-to-End Delay"
field count 19797
field mean 1.9326993500581e-005
field stddev 7.2787299316812e-006
field sum 0.382616490331
field sqrsum 8.4436167086881e-006
field min 8.992e-006
field max 6.4641092e-005
statistic Basic.rack[3].node[9].app 	hops
field count 19797
field mean 4.503662171036
field stddev 1.1171296282954
field sum 89159
field sqrsum 426247
field min 3
field max 6
statistic Basic.rack[3].eps.queue[0] 	dropsum
field count 0
field mean nan
field stddev nan
field sum 0
field sqrsum 0
field min nan
field max nan
statistic Basic.rack[3].eps.queue[1] 	dropsum
field count 0
field mean nan
field stddev nan
field sum 0
field sqrsum 0
field min nan
field max nan
statistic Basic.rack[3].eps.queue[2] 	dropsum
field count 0
field mean nan
field stddev nan
field sum 0
field sqrsum 0
field min nan
field max nan
statistic Basic.rack[3].eps.queue[3] 	dropsum
field count 0
field mean nan
field stddev nan
field sum 0
field sqrsum 0
field min nan
field max nan
statistic Basic.rack[4].node[0].app 	throughput
field count 20124
field mean 10062.5
field stddev 5809.4427443603
field sum 202497750
field sqrsum 2716777313250
field min 1
field max 20124
statistic Basic.rack[4].node[0].app 	"End-to-End Delay"
field count 20124
field mean 1.9496997919002e-005
field stddev 7.40853154646e-006
field sum 0.39235758612199
field sqrsum 8.7542728534029e-006
field min 9.4416e-006
field max 5.9593408e-005
statistic Basic.rack[4].node[0].app 	hops
field count 20124
field mean 4.9929437487577
field stddev 0.71066439389459
field sum 100478
field sqrsum 511844
field min 4
field max 6
statistic Basic.rack[4].node[1].app 	throughput
field count 20113
field mean 10057
field stddev 5806.2673178787
field sum 202276441
field sqrsum 2712324797369
field min 1
field max 20113
statistic Basic.rack[4].node[1].app 	"End-to-End Delay"
field count 20113
field mean 1.9444996656391e-005
field stddev 7.452419419521e-006
field sum 0.39109721774999
field sqrsum 8.7218755137442e-006
field min 9.4416e-006
field max 7.3173192e-005
statistic Basic.rack[4].node[1].app 	hops
field count 20113
field mean 4.9991050564312
field stddev 0.70336954281072
field sum 100547
field sqrsum 512595
field min 4
field max 6
statistic Basic.rack[4].node[2].app 	throughput
field count 19735
field mean 9868
field stddev 5697.1481169675
field sum 194744980
field sqrsum 2562259701860
field min 1
field max 19735
statistic Basic.rack[4].node[2].app 	"End-to-End Delay"
field count 19735
field mean 1.9491180689384e-005
field stddev 7.4059025218684e-006
field sum 0.38465845090499
field sqrsum 8.5798058072405e-006
field min 9.4416e-006
field max 6.8395371e-005
statistic Basic.rack[4].node[2].app 	hops
field count 19735
field mean 5.0026855839878
field stddev 0.70924835219845
field sum 98728
field sqrsum 503832
field min 4
field max 6
statistic Basic.rack[4].node[3].app 	throughput
field count 19941
field mean 9971
field stddev 5756.6151947129
field sum 198831711
field sqrsum 2643335043271
field min 1
field max 19941
statistic Basic.rack[4].node[3].app 	"End-to-End Delay"
field count 19941
field mean 1.9426151272453e-005
field stddev 7.3731758915425e-006
field sum 0.38737688252399
field sqrsum 8.6092545505511e-006
field min 9.4416e-006
field max 6.5536014e-005
statistic Basic.rack[4].node[3].app 	hops
field count 19941
field mean 4.9978436387343
field stddev 0.70664233810698
field sum 99662
field sqrsum 508052
field min 4
field max 6
statistic Basic.rack[4].node[4].app 	throughput
field count 19903
field mean 9952
field stddev 5745.6455395949
field sum 198074656
field sqrsum 2628252610464
field min 1
field max 19903
statistic Basic.rack[4].node[4].app 	"End-to-End Delay"
field count 19903
field mean 1.9455283621212e-005
field stddev 7.337284378352e-006
field sum 0.38721850991299
field sqrsum 8.6048848719958e-006
field min 9.4416e-006
field max 7.5244161e-005
statistic Basic.rack[4].node[4].app 	hops
field count 19903
field mean 5.0022107220017
field stddev 0.71413871729415
field sum 99559
field sqrsum 508165
field min 4
field max 6
statistic Basic.rack[4].node[5].app 	throughput
field count 20028
field mean 10014.5
field stddev 5781.7299314306
field sum 200570406
field sqrsum 2678082917714
field min 1
field max 20028
statistic Basic.rack[4].node[5].app 	"End-to-End Delay"
field count 20028
field mean 1.9529870688985e-005
field stddev 7.3328027443586e-006
field sum 0.39114425015899
field sqrsum 8.7158483379929e-006
field min 9.4416e-006
field max 5.6448129e-005
statistic Basic.rack[4].node[5].app 	hops
field count 20028
field mean 4.9969043339325
field stddev 0.70669384571861
field sum 100078
field sqrsum 510082
field min 4
field max 6
statistic Basic.rack[4].node[6].app 	throughput
field count 20047
field mean 10024
field stddev 5787.2147589896
field sum 200951128
field sqrsum 2685711825720
field min 1
field max 20047
statistic Basic.rack[4].node[6].app 	"End-to-End Delay"
field count 20047
field mean 1.9463256894498e-005
field stddev 7.361693037839e-006
field sum 0.39017991096399
field sqrsum 8.6805552779533e-006
field min 9.4416e-006
field max 6.430684e-005
statistic Basic.rack[4].node[6].app 	hops
field count 20047
field mean 5.0118222177882
field stddev 0.70623137312691
field sum 100472
field sqrsum 513546
field min 4
field max 6
statistic Basic.rack[4].node[7].app 	throughput
field count 19715
field mean 9858
field stddev 5691.3746142738
field sum 194350470
field sqrsum 2554477794190
field min 1
field max 19715
statistic Basic.rack[4].node[7].app 	"End-to-End Delay"
field count 19715
field mean 1.9481918571392e-005
field stddev 7.3748756760537e-006
field sum 0.38408602463499
field sqrsum 8.5549532867996e-006
field min 9.4416e-006
field max 6.589896e-005
statistic Basic.rack[4].node[7].app 	hops
field count 19715
field mean 4.9965508496069
field stddev 0.70985488408979
field sum 98507
field sqrsum 502129
field min 4
field max 6
statistic Basic.rack[4].node[8].app 	throughput
field count 19824
field mean 9912.5
field stddev 5722.8402039547
field sum 196505400
field sqrsum 2597080868200
field min 1
field max 19824
statistic Basic.rack[4].node[8].app 	"End-to-End Delay"
field count 19824
field mean 1.9393988367887e-005
field stddev 7.4373366055931e-006
field sum 0.38446642540499
field sqrsum 8.5528263241313e-006
field min 9.4416e-006
field max 5.9780406e-005
statistic Basic.rack[4].node[8].app 	hops
field count 19824
field mean 4.9972255851493
field stddev 0.7065839148276
field sum 99065
field sqrsum 504947
field min 4
field max 6
statistic Basic.rack[4].node[9].app 	throughput
field count 20052
field mean 10026.5
field stddev 5788.658134663
field sum 201051378
field sqrsum 2687721838230
field min 1
field max 20052
statistic Basic.rack[4].node[9].app 	"End-to-End Delay"
field count 20052
field mean 1.9490127878067e-005
field stddev 7.378292890769e-006
field sum 0.39081604421099
field sqrsum 8.7086151976169e-006
field min 9.4416e-006
field max 6.9398642e-005
statistic Basic.rack[4].node[9].app 	hops
field count 20052
field mean 5.0004987033712
field stddev 0.7070537052064
field sum 100270
field sqrsum 511424
field min 4
field max 6
statistic Basic.rack[4].eps.queue[0] 	dropsum
field count 0
field mean nan
field stddev nan
field sum 0
field sqrsum 0
field min nan
field max nan
statistic Basic.rack[4].eps.queue[1] 	dropsum
field count 0
field mean nan
field stddev nan
field sum 0
field sqrsum 0
field min nan
field max nan
statistic Basic.rack[4].eps.queue[2] 	dropsum
field count 0
field mean nan
field stddev nan
field sum 0
field sqrsum 0
field min nan
field max nan
statistic Basic.rack[4].eps.queue[3] 	dropsum
field count 0
field mean nan
field stddev nan
field sum 0
field sqrsum 0
field min nan
field max nan
statistic Basic.rack[5].node[0].app 	throughput
field count 19831
field mean 9916
field stddev 5724.8609298975
field sum 196644196
field sqrsum 2599832915316
field min 1
field max 19831
statistic Basic.rack[5].node[0].app 	"End-to-End Delay"
field count 19831
field mean 1.4593149786192e-005
field stddev 1.0460472648868e-005
field sum 0.28939675340997
field sqrsum 6.3930382779373e-006
field min 8.496e-007
field max 5.8920508e-005
statistic Basic.rack[5].node[0].app 	hops
field count 19831
field mean 5.0006051132066
field stddev 0.70934944728118
field sum 99167
field sqrsum 505873
field min 4
field max 6
statistic Basic.rack[5].node[1].app 	throughput
field count 19843
field mean 9922
field stddev 5728.3250315137
field sum 196882246
field sqrsum 2604555232334
field min 1
field max 19843
statistic Basic.rack[5].node[1].app 	"End-to-End Delay"
field count 19843
field mean 1.4666977723276e-005
field stddev 1.0478187036561e-005
field sum 0.29103683896297
field sqrsum 6.4471317054211e-006
field min 8.496e-007
field max 5.7346504e-005
statistic Basic.rack[5].node[1].app 	hops
field count 19843
field mean 4.9988912966789
field stddev 0.70528608755755
field sum 99193
field sqrsum 505725
field min 4
field max 6
statistic Basic.rack[5].node[2].app 	throughput
field count 20036
field mean 10018.5
field stddev 5784.039332508
field sum 200730666
field sqrsum 2681293326206
field min 1
field max 20036
statistic Basic.rack[5].node[2].app 	"End-to-End Delay"
field count 20036
field mean 1.4760111375223e-005
field stddev 1.0432895023912e-005
field sum 0.29573359151397
field sqrsum 6.5457763051908e-006
field min 8.496e-007
field max 5.412527e-005
statistic Basic.rack[5].node[2].app 	hops
field count 20036
field mean 5.0126272709124
field stddev 0.70768201955508
field sum 100433
field sqrsum 513467
field min 4
field max 6
statistic Basic.rack[5].node[3].app 	throughput
field count 20182
field mean 10091.5
field stddev 5826.1859021719
field sum 203666653
field sqrsum 2740334816115
field min 1
field max 20182
statistic Basic.rack[5].node[3].app 	"End-to-End Delay"
field count 20182
field mean 1.4700702077147e-005
field stddev 1.0501028006739e-005
field sum 0.29668956932097
field sqrsum 6.586935909596e-006
field min 8.496e-007
field max 6.1962886e-005
statistic Basic.rack[5].node[3].app 	hops
field count 20182
field mean 5.003072044396
field stddev 0.70729279343619
field sum 100972
field sqrsum 515266
field min 4
field max 6
statistic Basic.rack[5].node[4].app 	throughput
field count 20023
field mean 10012
field stddev 5780.2865557571
field sum 200470276
field sqrsum 2676077714324
field min 1
field max 20023
statistic Basic.rack[5].node[4].app 	"End-to-End Delay"
field count 20023
field mean 1.4606685597511e-005
field stddev 1.0543881987637e-005
field sum 0.29246966571897
field sqrsum 6.4979272171926e-006
field min 8.496e-007
field max 5.7235384e-005
statistic Basic.rack[5].node[4].app 	hops
field count 20023
field mean 4.9956549967537
field stddev 0.70723468540903
field sum 100028
field sqrsum 509720
field min 4
field max 6
statistic Basic.rack[5].node[5].app 	throughput
field count 20082
field mean 10041.5
field stddev 5797.3183887035
field sum 201653403
field sqrsum 2699802977165
field min 1
field max 20082
statistic Basic.rack[5].node[5].app 	"End-to-End Delay"
field count 20082
field mean 1.4610340708992e-005
field stddev 1.046830445286e-005
field sum 0.29340486211797
field sqrsum 6.4873293808214e-006
field min 8.496e-007
field max 5.4059049e-005
statistic Basic.rack[5].node[5].app 	hops
field count 20082
field mean 5.0022408126681
field stddev 0.70789507742102
field sum 100455
field sqrsum 512563
field min 4
field max 6
statistic Basic.rack[5].node[6].app 	throughput
field count 19780
field mean 9890.5
field stddev 5710.1384980285
field sum 195634090
field sqrsum 2579826744830
field min 1
field max 19780
statistic Basic.rack[5].node[6].app 	"End-to-End Delay"
field count 19780
field mean 1.4486285543628e-005
field stddev 1.0435523701831e-005
field sum 0.28653872805297
field sqrsum 6.3048179982732e-006
field min 8.496e-007
field max 5.5811462e-005
statistic Basic.rack[5].node[6].app 	hops
field count 19780
field mean 4.9950455005056
field stddev 0.70796478668825
field sum 98802
field sqrsum 503434
field min 4
field max 6
statistic Basic.rack[5].node[7].app 	throughput
field count 19833
field mean 9917
field stddev 5725.4382801669
field sum 196683861
field sqrsum 2600619571429
field min 1
field max 19833
statistic Basic.rack[5].node[7].app 	"End-to-End Delay"
field count 19833
field mean 1.461316269243e-005
field stddev 1.0470831014392e-005
field sum 0.28982285567897
field sqrsum 6.4095753499024e-006
field min 8.496e-007
field max 5.6951464e-005
statistic Basic.rack[5].node[7].app 	hops
field count 19833
field mean 4.9970755811022
field stddev 0.70288083450347
field sum 99107
field sqrsum 505043
field min 4
field max 6
statistic Basic.rack[5].node[8].app 	throughput
field count 20041
field mean 10021
field stddev 5785.4827081815
field sum 200830861
field sqrsum 2683301133821
field min 1
field max 20041
statistic Basic.rack[5].node[8].app 	"End-to-End Delay"
field count 20041
field mean 1.4770425586496e-005
field stddev 1.0585827705566e-005
field sum 0.29601409917897
field sqrsum 6.6179315786438e-006
field min 8.496e-007
field max 6.1383408e-005
statistic Basic.rack[5].node[8].app 	hops
field count 20041
field mean 4.9978045007734
field stddev 0.70491231168662
field sum 100161
field sqrsum 510543
field min 4
field max 6
statistic Basic.rack[5].node[9].app 	throughput
field count 19843
field mean 9922
field stddev 5728.3250315137
field sum 196882246
field sqrsum 2604555232334
field min 1
field max 19843
statistic Basic.rack[5].node[9].app 	"End-to-End Delay"
field count 19843
field mean 1.464011911737e-005
field stddev 1.0487374443452e-005
field sum 0.29050388364597
field sqrsum 6.4353342813897e-006
field min 8.496e-007
field max 5.3746076e-005
statistic Basic.rack[5].node[9].app 	hops
field count 19843
field mean 5.000201582422
field stddev 0.70628662879844
field sum 99219
field sqrsum 506013
field min 4
field max 6
statistic Basic.rack[5].eps.queue[0] 	dropsum
field count 0
field mean nan
field stddev nan
field sum 0
field sqrsum 0
field min nan
field max nan
statistic Basic.rack[5].eps.queue[1] 	dropsum
field count 0
field mean nan
field stddev nan
field sum 0
field sqrsum 0
field min nan
field max nan
statistic Basic.rack[5].eps.queue[2] 	dropsum
field count 0
field mean nan
field stddev nan
field sum 0
field sqrsum 0
field min nan
field max nan
statistic Basic.rack[5].eps.queue[3] 	dropsum
field count 0
field mean nan
field stddev nan
field sum 0
field sqrsum 0
field min nan
field max nan
statistic Basic.rack[6].node[0].app 	throughput
field count 19946
field mean 9973.5
field stddev 5758.0585703864
field sum 198931431
field sqrsum 2645323858961
field min 1
field max 19946
statistic Basic.rack[6].node[0].app 	"End-to-End Delay"
field count 19946
field mean 1.542162521523e-005
field stddev 5.8975633090437e-006
field sum 0.30759973654299
field sqrsum 5.437399944039e-006
field min 9.4416e-006
field max 5.4771021e-005
statistic Basic.rack[6].node[0].app 	hops
field count 19946
field mean 5.5001504060965
field stddev 0.50001251169012
field sum 109706
field sqrsum 608386
field min 5
field max 6
statistic Basic.rack[6].node[1].app 	throughput
field count 19972
field mean 9986.5
field stddev 5765.5641238882
field sum 199450378
field sqrsum 2655681783070
field min 1
field max 19972
statistic Basic.rack[6].node[1].app 	"End-to-End Delay"
field count 19972
field mean 1.5488621817995e-005
field stddev 5.9613540297845e-006
field sum 0.30933875494899
field sqrsum 5.5009552319085e-006
field min 9.4416e-006
field max 5.6210446e-005
statistic Basic.rack[6].node[1].app 	hops
field count 19972
field mean 5.5010514720609
field stddev 0.50001141237222
field sum 109867
field sqrsum 609377
field min 5
field max 6
statistic Basic.rack[6].node[2].app 	throughput
field count 20281
field mean 10141
field stddev 5854.7647405055
field sum 205669621
field sqrsum 2780858945541
field min 1
field max 20281
statistic Basic.rack[6].node[2].app 	"End-to-End Delay"
field count 20281
field mean 1.551551513091e-005
field stddev 6.0051924452164e-006
field sum 0.31467016236999
field sqrsum 5.6136138457443e-006
field min 9.4416e-006
field max 5.4605453e-005
statistic Basic.rack[6].node[2].app 	hops
field count 20281
field mean 5.5015038706178
field stddev 0.5000100655765
field sum 111576
field sqrsum 618906
field min 5
field max 6
statistic Basic.rack[6].node[3].app 	throughput
field count 20055
field mean 10028
field stddev 5789.524160067
field sum 201111540
field sqrsum 2688928326980
field min 1
field max 20055
statistic Basic.rack[6].node[3].app 	"End-to-End Delay"
field count 20055
field mean 1.5384605510545e-005
field stddev 5.9368258274198e-006
field sum 0.30853826351399
field sqrsum 5.4535607658226e-006
field min 9.4416e-006
field max 5.3955556e-005
statistic Basic.rack[6].node[3].app 	hops
field count 20055
field mean 5.4963849414111
field stddev 0.49999939704024
field sum 110230
field sqrsum 610880
field min 5
field max 6
statistic Basic.rack[6].node[4].app 	throughput
field count 20282
field mean 10141.5
field stddev 5855.0534156402
field sum 205689903
field sqrsum 2781270305065
field min 1
field max 20282
statistic Basic.rack[6].node[4].app 	"End-to-End Delay"
field count 20282
field mean 1.550558112124e-005
field stddev 5.9919764357591e-006
field sum 0.31448419630099
field sqrsum 5.6044248118583e-006
field min 9.4416e-006
field max 5.6536331e-005
statistic Basic.rack[6].node[4].app 	hops
field count 20282
field mean 5.5023173257075
field stddev 0.50000695649674
field sum 111598
field sqrsum 619118
field min 5
field max 6
statistic Basic.rack[6].node[5].app 	throughput
field count 19890
field mean 9945.5
field stddev 5741.892762844
field sum 197815995
field sqrsum 2623106032365
field min 1
field max 19890
statistic Basic.rack[6].node[5].app 	"End-to-End Delay"
field count 19890
field mean 1.5503517375716e-005
field stddev 6.0443543505165e-006
field sum 0.30836496060299
field sqrsum 5.5073706166964e-006
field min 9.4416e-006
field max 7.0628615e-005
statistic Basic.rack[6].node[5].app 	hops
field count 19890
field mean 5.5020613373555
field stddev 0.50000832036762
field sum 109436
field sqrsum 607096
field min 5
field max 6
statistic Basic.rack[6].node[6].app 	throughput
field count 19752
field mean 9876.5
field stddev 5702.0555942572
field sum 195080628
field sqrsum 2568886736380
field min 1
field max 19752
statistic Basic.rack[6].node[6].app 	"End-to-End Delay"
field count 19752
field mean 1.546265280164e-005
field stddev 5.9364545246038e-006
field sum 0.30541831813799
field sqrsum 5.4186321274939e-006
field min 9.4416e-006
field max 5.0473249e-005
statistic Basic.rack[6].node[6].app 	hops
field count 19752
field mean 5.496456055083
field stddev 0.50000009740548
field sum 108566
field sqrsum 601666
field min 5
field max 6
statistic Basic.rack[6].node[7].app 	throughput
field count 20104
field mean 10052.5
field stddev 5803.6692416666
field sum 202095460
field sqrsum 2708685450380
field min 1
field max 20104
statistic Basic.rack[6].node[7].app 	"End-to-End Delay"
field count 20104
field mean 1.5478633879078e-005
field stddev 5.9524614448051e-006
field sum 0.31118245550499
field sqrsum 5.528964718509e-006
field min 9.4416e-006
field max 5.4777665e-005
statistic Basic.rack[6].node[7].app 	hops
field count 20104
field mean 5.4989056904099
field stddev 0.50001123825548
field sum 110550
field sqrsum 612930
field min 5
field max 6
statistic Basic.rack[6].node[8].app 	throughput
field count 19890
field mean 9945.5
field stddev 5741.892762844
field sum 197815995
field sqrsum 2623106032365
field min 1
field max 19890
statistic Basic.rack[6].node[8].app 	"End-to-End Delay"
field count 19890
field mean 1.551325114555e-005
field stddev 5.9864296058573e-006
field sum 0.30855856528499
field sqrsum 5.499515360218e-006
field min 9.4416e-006
field max 6.3851606e-005
statistic Basic.rack[6].node[8].app 	hops
field count 19890
field mean 5.504474610357
field stddev 0.49999254656209
field sum 109484
field sqrsum 607624
field min 5
field max 6
statistic Basic.rack[6].node[9].app 	throughput
field count 19684
field mean 9842.5
field stddev 5682.4256850985
field sum 193739770
field sqrsum 2542447001710
field min 1
field max 19684
statistic Basic.rack[6].node[9].app 	"End-to-End Delay"
field count 19684
field mean 1.5433577875126e-005
field stddev 5.9831727236421e-006
field sum 0.30379454689399
field sqrsum 5.3932558355442e-006
field min 9.4416e-006
field max 5.6276244e-005
statistic Basic.rack[6].node[9].app 	hops
field count 19684
field mean 5.4962914041861
field stddev 0.49999894693308
field sum 108189
field sqrsum 599559
field min 5
field max 6
statistic Basic.rack[6].eps.queue[0] 	dropsum
field count 0
field mean nan
field stddev nan
field sum 0
field sqrsum 0
field min nan
field max nan
statistic Basic.rack[6].eps.queue[1] 	dropsum
field count 0
field mean nan
field stddev nan
field sum 0
field sqrsum 0
field min nan
field max nan
statistic Basic.rack[6].eps.queue[2] 	dropsum
field count 0
field mean nan
field stddev nan
field sum 0
field sqrsum 0
field min nan
field max nan
statistic Basic.rack[6].eps.queue[3] 	dropsum
field count 0
field mean nan
field stddev nan
field sum 0
field sqrsum 0
field min nan
field max nan
statistic Basic.rack[7].node[0].app 	throughput
field count 20104
field mean 10052.5
field stddev 5803.6692416666
field sum 202095460
field sqrsum 2708685450380
field min 1
field max 20104
statistic Basic.rack[7].node[0].app 	"End-to-End Delay"
field count 20104
field mean 1.694176521304e-005
field stddev 7.9882535137296e-006
field sum 0.34059724784297
field sqrsum 7.0531351451581e-006
field min 8.992e-006
field max 6.0176808e-005
statistic Basic.rack[7].node[0].app 	hops
field count 20104
field mean 4.2459709510545
field stddev 0.82837174844428
field sum 85361
field sqrsum 376235
field min 3
field max 5
statistic Basic.rack[7].node[1].app 	throughput
field count 20024
field mean 10012.5
field stddev 5780.5752308918
field sum 200490300
field sqrsum 2676478674900
field min 1
field max 20024
statistic Basic.rack[7].node[1].app 	"End-to-End Delay"
field count 20024
field mean 1.6976387520124e-005
field stddev 8.04501257293e-006
field sum 0.33993518370297
field sqrsum 7.0668045674661e-006
field min 8.992e-006
field max 6.6516125e-005
statistic Basic.rack[7].node[1].app 	hops
field count 20024
field mean 4.2446064722333
field stddev 0.83276548430242
field sum 84994
field sqrsum 374652
field min 3
field max 5
statistic Basic.rack[7].node[2].app 	throughput
field count 20057
field mean 10029
field stddev 5790.1015103364
field sum 201151653
field sqrsum 2689732853365
field min 1
field max 20057
statistic Basic.rack[7].node[2].app 	"End-to-End Delay"
field count 20057
field mean 1.6904210612752e-005
field stddev 8.0386655175754e-006
field sum 0.33904775225997
field sqrsum 7.0273562060768e-006
field min 8.992e-006
field max 7.198046e-005
statistic Basic.rack[7].node[2].app 	hops
field count 20057
field mean 4.2435558657825
field stddev 0.82851641463794
field sum 85113
field sqrsum 374949
field min 3
field max 5
statistic Basic.rack[7].node[3].app 	throughput
field count 19975
field mean 9988
field stddev 5766.4301492923
field sum 199510300
field sqrsum 2656878665100
field min 1
field max 19975
statistic Basic.rack[7].node[3].app 	"End-to-End Delay"
field count 19975
field mean 1.6947665939673e-005
field stddev 8.0027543181483e-006
field sum 0.33852962714497
field sqrsum 7.0165034190741e-006
field min 8.992e-006
field max 6.2270592e-005
statistic Basic.rack[7].node[3].app 	hops
field count 19975
field mean 4.2527158948686
field stddev 0.82498441634284
field sum 84948
field sqrsum 374854
field min 3
field max 5
statistic Basic.rack[7].node[4].app 	throughput
field count 20066
field mean 10033.5
field stddev 5792.6995865486
field sum 201332211
field sqrsum 2693355208021
field min 1
field max 20066
statistic Basic.rack[7].node[4].app 	"End-to-End Delay"
field count 20066
field mean 1.6916113568323e-005
field stddev 7.9492658824052e-006
field sum 0.33943873486197
field sqrsum 7.0099081536207e-006
field min 8.992e-006
field max 5.9628725e-005
statistic Basic.rack[7].node[4].app 	hops
field count 20066
field mean 4.2471842918369
field stddev 0.82732929110343
field sum 85224
field sqrsum 375696
field min 3
field max 5
statistic Basic.rack[7].node[5].app 	throughput
field count 20044
field mean 10022.5
field stddev 5786.3487335855
field sum 200890990
field sqrsum 2684506299370
field min 1
field max 20044
statistic Basic.rack[7].node[5].app 	"End-to-End Delay"
field count 20044
field mean 1.7069699751046e-005
field stddev 8.0551049678684e-006
field sum 0.34214506180997
field sqrsum 7.1407978400567e-006
field min 8.992e-006
field max 6.753233e-005
statistic Basic.rack[7].node[5].app 	hops
field count 20044
field mean 4.2498503292756
field stddev 0.82702294321855
field sum 85184
field sqrsum 375728
field min 3
field max 5
statistic Basic.rack[7].node[6].app 	throughput
field count 19988
field mean 9994.5
field stddev 5770.1829260432
field sum 199770066
field sqrsum 2662069309494
field min 1
field max 19988
statistic Basic.rack[7].node[6].app 	"End-to-End Delay"
field count 19988
field mean 1.6964342140733e-005
field stddev 7.9668101439485e-006
field sum 0.33908327070897
field sqrsum 7.0209007850697e-006
field min 8.992e-006
field max 5.6039961e-005
statistic Basic.rack[7].node[6].app 	hops
field count 19988
field mean 4.2449969981989
field stddev 0.82843743612395
field sum 84849
field sqrsum 373901
field min 3
field max 5
statistic Basic.rack[7].node[7].app 	throughput
field count 19915
field mean 9958
field stddev 5749.1096412111
field sum 198313570
field sqrsum 2633009268890
field min 1
field max 19915
statistic Basic.rack[7].node[7].app 	"End-to-End Delay"
field count 19915
field mean 1.6865754255936e-005
field stddev 7.968750304943e-006
field sum 0.33588149600697
field sqrsum 6.929453314818e-006
field min 8.992e-006
field max 6.2919304e-005
statistic Basic.rack[7].node[7].app 	hops
field count 19915
field mean 4.2492091388401
field stddev 0.82774085216674
field sum 84623
field sqrsum 373225
field min 3
field max 5
statistic Basic.rack[7].node[8].app 	throughput
field count 19870
field mean 9935.5
field stddev 5736.1192601503
field sum 197418385
field sqrsum 2615201346095
field min 1
field max 19870
statistic Basic.rack[7].node[8].app 	"End-to-End Delay"
field count 19870
field mean 1.7013037863914e-005
field stddev 8.0555699785858e-006
field sum 0.33804906235597
field sqrsum 7.0405847721144e-006
field min 8.992e-006
field max 6.3372669e-005
statistic Basic.rack[7].node[8].app 	hops
field count 19870
field mean 4.2550075490689
field stddev 0.82724009446007
field sum 84547
field sqrsum 373345
field min 3
field max 5
statistic Basic.rack[7].node[9].app 	throughput
field count 20087
field mean 10044
field stddev 5798.7617643769
field sum 201753828
field sqrsum 2701820013300
field min 1
field max 20087
statistic Basic.rack[7].node[9].app 	"End-to-End Delay"
field count 20087
field mean 1.6887386361526e-005
field stddev 7.95827444487e-006
field sum 0.33921692984397
field sqrsum 7.0006167328071e-006
field min 8.992e-006
field max 5.7082751e-005
statistic Basic.rack[7].node[9].app 	hops
field count 20087
field mean 4.2410016428536
field stddev 0.82949195755258
field sum 85189
field sqrsum 375107
field min 3
field max 5
statistic Basic.rack[7].eps.queue[0] 	dropsum
field count 0
field mean nan
field stddev nan
field sum 0
field sqrsum 0
field min nan
field max nan
statistic Basic.rack[7].eps.queue[1] 	dropsum
field count 0
field mean nan
field stddev nan
field sum 0
field sqrsum 0
field min nan
field max nan
statistic Basic.rack[7].eps.queue[2] 	dropsum
field count 0
field mean nan
field stddev nan
field sum 0
field sqrsum 0
field min nan
field max nan
statistic Basic.rack[7].eps.queue[3] 	dropsum
field count 0
field mean nan
field stddev nan
field sum 0
field sqrsum 0
field min nan
field max nan
statistic Basic.rack[8].node[0].app 	throughput
field count 19809
field mean 9905
field stddev 5718.5100769344
field sum 196208145
field sqrsum 2591190165585
field min 1
field max 19809
statistic Basic.rack[8].node[0].app 	"End-to-End Delay"
field count 19809
field mean 2.1568406354538e-005
field stddev 5.0837803039337e-006
field sum 0.42724856147704
field sqrsum 9.7270048260435e-006
field min 1.7584e-005
field max 5.9112404e-005
statistic Basic.rack[8].node[0].app 	hops
field count 19809
field mean 5.2549851077793
field stddev 0.83040557309199
field sum 104096
field sqrsum 560682
field min 4
field max 6
statistic Basic.rack[8].node[1].app 	throughput
field count 20010
field mean 10005.5
field stddev 5776.5337790062
field sum 200210055
field sqrsum 2670868870385
field min 1
field max 20010
statistic Basic.rack[8].node[1].app 	"End-to-End Delay"
field count 20010
field mean 2.1595020337683e-005
field stddev 5.1461420911282e-006
field sum 0.43211635695704
field sqrsum 9.8614554301803e-006
field min 1.7584e-005
field max 6.6067711e-005
statistic Basic.rack[8].node[1].app 	hops
field count 20010
field mean 5.2467766116942
field stddev 0.83123999098187
field sum 104988
field sqrsum 564674
field min 4
field max 6
statistic Basic.rack[8].node[2].app 	throughput
field count 19867
field mean 9934
field stddev 5735.2532347462
field sum 197358778
field sqrsum 2614017014610
field min 1
field max 19867
statistic Basic.rack[8].node[2].app 	"End-to-End Delay"
field count 19867
field mean 2.1623093622995e-005
field stddev 5.1557151560127e-006
field sum 0.42958600100804
field sqrsum 9.8170443868885e-006
field min 1.7584e-005
field max 5.5362215e-005
statistic Basic.rack[8].node[2].app 	hops
field count 19867
field mean 5.2577641314743
field stddev 0.82767098363961
field sum 104456
field sqrsum 562814
field min 4
field max 6
statistic Basic.rack[8].node[3].app 	throughput
field count 19815
field mean 9908
field stddev 5720.2421277425
field sum 196327020
field sqrsum 2593545376540
field min 1
field max 19815
statistic Basic.rack[8].node[3].app 	"End-to-End Delay"
field count 19815
field mean 2.1563953513704e-005
field stddev 5.096999628583e-006
field sum 0.42728973887404
field sqrsum 9.728812000868e-006
field min 1.7584e-005
field max 5.5446862e-005
statistic Basic.rack[8].node[3].app 	hops
field count 19815
field mean 5.2528387585163
field stddev 0.82986053534143
field sum 104085
field sqrsum 560387
field min 4
field max 6
statistic Basic.rack[8].node[4].app 	throughput
field count 19791
field mean 9896
field stddev 5713.31392451
field sum 195851736
field sqrsum 2584133088696
field min 1
field max 19791
statistic Basic.rack[8].node[4].app 	"End-to-End Delay"
field count 19791
field mean 2.1635384618414e-005
field stddev 5.1123799525192e-006
field sum 0.42818589698304
field sqrsum 9.7812064949436e-006
field min 1.7584e-005
field max 6.6330489e-005
statistic Basic.rack[8].node[4].app 	hops
field count 19791
field mean 5.2477388712041
field stddev 0.82753084069018
field sum 103858
field sqrsum 558572
field min 4
field max 6
statistic Basic.rack[8].node[5].app 	throughput
field count 19798
field mean 9899.5
field stddev 5715.3346504528
field sum 195990301
field sqrsum 2586875982899
field min 1
field max 19798
statistic Basic.rack[8].node[5].app 	"End-to-End Delay"
field count 19798
field mean 2.1623823020913e-005
field stddev 5.128159481788e-006
field sum 0.42810844816804
field sqrsum 9.7779632123633e-006
field min 1.7584e-005
field max 6.4128013e-005
statistic Basic.rack[8].node[5].app 	hops
field count 19798
field mean 5.2481058692797
field stddev 0.82551937789136
field sum 103902
field sqrsum 558780
field min 4
field max 6
statistic Basic.rack[8].node[6].app 	throughput
field count 20123
field mean 10062
field stddev 5809.1540692256
field sum 202477626
field sqrsum 2716372337874
field min 1
field max 20123
statistic Basic.rack[8].node[6].app 	"End-to-End Delay"
field count 20123
field mean 2.1592431199475e-005
field stddev 5.096937621416e-006
field sum 0.43450449302704
field sqrsum 9.9047532442016e-006
field min 1.7584e-005
field max 6.0961988e-005
statistic Basic.rack[8].node[6].app 	hops
field count 20123
field mean 5.2495651741788
field stddev 0.82965977315681
field sum 105637
field sqrsum 568399
field min 4
field max 6
statistic Basic.rack[8].node[7].app 	throughput
field count 19856
field mean 9928.5
field stddev 5732.0778082646
field sum 197140296
field sqrsum 2609677525016
field min 1
field max 19856
statistic Basic.rack[8].node[7].app 	"End-to-End Delay"
field count 19856
field mean 2.1612914531932e-005
field stddev 5.1441162549648e-006
field sum 0.42914603094604
field sqrsum 9.8004981493e-006
field min 1.7584e-005
field max 6.1044521e-005
statistic Basic.rack[8].node[7].app 	hops
field count 19856
field mean 5.2614826752619
field stddev 0.82800339507965
field sum 104472
field sqrsum 563290
field min 4
field max 6
statistic Basic.rack[8].node[8].app 	throughput
field count 20100
field mean 10050.5
field stddev 5802.5145411278
field sum 202015050
field sqrsum 2707069008350
field min 1
field max 20100
statistic Basic.rack[8].node[8].app 	"End-to-End Delay"
field count 20100
field mean 2.161998692448e-005
field stddev 5.1533297761142e-006
field sum 0.43456173718204
field sqrsum 9.928984355353e-006
field min 1.7584e-005
field max 6.7450541e-005
statistic Basic.rack[8].node[8].app 	hops
field count 20100
field mean 5.2473631840796
field stddev 0.82933762605633
field sum 105472
field sqrsum 567274
field min 4
field max 6
statistic Basic.rack[8].node[9].app 	throughput
field count 20249
field mean 10125
field stddev 5845.5271361957
field sum 205021125
field sqrsum 2767716847125
field min 1
field max 20249
statistic Basic.rack[8].node[9].app 	"End-to-End Delay"
field count 20249
field mean 2.1613741455629e-005
field stddev 5.1306398255822e-006
field sum 0.43765665073504
field sqrsum 9.9923952150458e-006
field min 1.7584e-005
field max 5.8547703e-005
statistic Basic.rack[8].node[9].app 	hops
field count 20249
field mean 5.2508765864981
field stddev 0.83067507821556
field sum 106325
field sqrsum 572271
field min 4
field max 6
statistic Basic.rack[8].eps.queue[0] 	dropsum
field count 0
field mean nan
field stddev nan
field sum 0
field sqrsum 0
field min nan
field max nan
statistic Basic.rack[8].eps.queue[1] 	dropsum
field count 0
field mean nan
field stddev nan
field sum 0
field sqrsum 0
field min nan
field max nan
statistic Basic.rack[8].eps.queue[2] 	dropsum
field count 0
field mean nan
field stddev nan
field sum 0
field sqrsum 0
field min nan
field max nan
statistic Basic.rack[8].eps.queue[3] 	dropsum
field count 0
field mean nan
field stddev nan
field sum 0
field sqrsum 0
field min nan
field max nan
statistic Basic.rack[9].node[0].app 	throughput
field count 19967
field mean 9984
field stddev 5764.1207482148
field sum 199350528
field sqrsum 2653687778560
field min 1
field max 19967
statistic Basic.rack[9].node[0].app 	"End-to-End Delay"
field count 19967
field mean 1.972357424811e-005
field stddev 7.2949211418051e-006
field sum 0.393820607012
field sqrsum 8.8300581324082e-006
field min 9.4416e-006
field max 6.0001227e-005
statistic Basic.rack[9].node[0].app 	hops
field count 19967
field mean 5.5017278509541
field stddev 0.50000953557681
field sum 109853
field sqrsum 609373
field min 5
field max 6
statistic Basic.rack[9].node[1].app 	throughput
field count 19793
field mean 9897
field stddev 5713.8912747794
field sum 195891321
field sqrsum 2584916574809
field min 1
field max 19793
statistic Basic.rack[9].node[1].app 	"End-to-End Delay"
field count 19793
field mean 1.9800426247259e-005
field stddev 7.3454947954347e-006
field sum 0.391909836712
field sqrsum 8.8278847840784e-006
field min 9.4416e-006
field max 5.8593345e-005
statistic Basic.rack[9].node[1].app 	hops
field count 19793
field mean 5.4954276764513
field stddev 0.49999172409879
field sum 108771
field sqrsum 602691
field min 5
field max 6
statistic Basic.rack[9].node[2].app 	throughput
field count 20104
field mean 10052.5
field stddev 5803.6692416666
field sum 202095460
field sqrsum 2708685450380
field min 1
field max 20104
statistic Basic.rack[9].node[2].app 	"End-to-End Delay"
field count 20104
field mean 1.970434303084e-005
field stddev 7.3516679979012e-006
field sum 0.39613611229201
field sqrsum 8.8921091338345e-006
field min 9.4416e-006
field max 6.3535913e-005
statistic Basic.rack[9].node[2].app 	hops
field count 20104
field mean 5.4975129327497
field stddev 0.50000625010457
field sum 110522
field sqrsum 612622
field min 5
field max 6
statistic Basic.rack[9].node[3].app 	throughput
field count 20126
field mean 10063.5
field stddev 5810.0200946296
field sum 202538001
field sqrsum 2717587384751
field min 1
field max 20126
statistic Basic.rack[9].node[3].app 	"End-to-End Delay"
field count 20126
field mean 1.9709366082828e-005
field stddev 7.2895193575146e-006
field sum 0.39667070178301
field sqrsum 8.8875120616033e-006
field min 9.4416e-006
field max 6.4488273e-005
statistic Basic.rack[9].node[3].app 	hops
field count 20126
field mean 5.4999503130279
field stddev 0.50001241973708
field sum 110692
field sqrsum 613832
field min 5
field max 6
statistic Basic.rack[9].node[4].app 	throughput
field count 19987
field mean 9994
field stddev 5769.8942509085
field sum 199750078
field sqrsum 2661669789350
field min 1
field max 19987
statistic Basic.rack[9].node[4].app 	"End-to-End Delay"
field count 19987
field mean 1.9657359601491e-005
field stddev 7.3794540338298e-006
field sum 0.39289164635501
field sqrsum 8.8115768247847e-006
field min 9.4416e-006
field max 6.6656943e-005
statistic Basic.rack[9].node[4].app 	hops
field count 19987
field mean 5.4961224796117
field stddev 0.4999974728331
field sum 109851
field sqrsum 608751
field min 5
field max 6
statistic Basic.rack[9].node[5].app 	throughput
field count 19914
field mean 9957.5
field stddev 5748.8209660764
field sum 198293655
field sqrsum 2632612661665
field min 1
field max 19914
statistic Basic.rack[9].node[5].app 	"End-to-End Delay"
field count 19914
field mean 1.9645766377825e-005
field stddev 7.3291552133798e-006
field sum 0.391225791648
field sqrsum 8.7555874896281e-006
field min 9.4416e-006
field max 6.1135702e-005
statistic Basic.rack[9].node[5].app 	hops
field count 19914
field mean 5.4947775434368
field stddev 0.49998527897364
field sum 109423
field sqrsum 606233
field min 5
field max 6
statistic Basic.rack[9].node[6].app 	throughput
field count 20029
field mean 10015
field stddev 5782.0186065652
field sum 200590435
field sqrsum 2678484078555
field min 1
field max 20029
statistic Basic.rack[9].node[6].app 	"End-to-End Delay"
field count 20029
field mean 1.9711354098458e-005
field stddev 7.3151321668205e-006
field sum 0.39479871123801
field sqrsum 8.8537386796294e-006
field min 9.4416e-006
field max 5.5945013e-005
statistic Basic.rack[9].node[6].app 	hops
field count 20029
field mean 5.5020719956064
field stddev 0.50000818907726
field sum 110201
field sqrsum 611341
field min 5
field max 6
statistic Basic.rack[9].node[7].app 	throughput
field count 19895
field mean 9948
field stddev 5743.3361385174
field sum 197915460
field sqrsum 2625084689620
field min 1
field max 19895
statistic Basic.rack[9].node[7].app 	"End-to-End Delay"
field count 19895
field mean 1.9709940591958e-005
field stddev 7.3158443124423e-006
field sum 0.392129268077
field sqrsum 8.7936028509752e-006
field min 9.4416e-006
field max 6.6582649e-005
statistic Basic.rack[9].node[7].app 	hops
field count 19895
field mean 5.4999246041719
field stddev 0.50001256076041
field sum 109421
field sqrsum 606781
field min 5
field max 6
statistic Basic.rack[9].node[8].app 	throughput
field count 20257
field mean 10129
field stddev 5847.8365372731
field sum 205183153
field sqrsum 2770998481265
field min 1
field max 20257
statistic Basic.rack[9].node[8].app 	"End-to-End Delay"
field count 20257
field mean 1.9617958191687e-005
field stddev 7.2331924717782e-006
field sum 0.39740097908901
field sqrsum 8.8559709425529e-006
field min 9.4416e-006
field max 5.8726497e-005
statistic Basic.rack[9].node[8].app 	hops
field count 20257
field mean 5.4999753171743
field stddev 0.50001234126054
field sum 111413
field sqrsum 617833
field min 5
field max 6
statistic Basic.rack[9].node[9].app 	throughput
field count 19925
field mean 9963
field stddev 5751.996392558
field sum 198512775
field sqrsum 2636977532175
field min 1
field max 19925
statistic Basic.rack[9].node[9].app 	"End-to-End Delay"
field count 19925
field mean 1.9750715657365e-005
field stddev 7.3071554515228e-006
field sum 0.393533009473
field sqrsum 8.8363910041627e-006
field min 9.4416e-006
field max 6.1332482e-005
statistic Basic.rack[9].node[9].app 	hops
field count 19925
field mean 5.5045420326223
field stddev 0.49999191652007
field sum 109678
field sqrsum 608708
field min 5
field max 6
statistic Basic.rack[9].eps.queue[0] 	dropsum
field count 0
field mean nan
field stddev nan
field sum 0
field sqrsum 0
field min nan
field max nan
statistic Basic.rack[9].eps.queue[1] 	dropsum
field count 0
field mean nan
field stddev nan
field sum 0
field sqrsum 0
field min nan
field max nan
statistic Basic.rack[9].eps.queue[2] 	dropsum
field count 0
field mean nan
field stddev nan
field sum 0
field sqrsum 0
field min nan
field max nan
statistic Basic.rack[9].eps.queue[3] 	dropsum
field count 0
field mean nan
field stddev nan
field sum 0
field sqrsum 0
field min nan
field max nan
statistic Basic.rack[10].node[0].app 	throughput
field count 20080
field mean 10040.5
field stddev 5796.7410384342
field sum 201613240
field sqrsum 2698996443880
field min 1
field max 20080
statistic Basic.rack[10].node[0].app 	"End-to-End Delay"
field count 20080
field mean 1.0229513846662e-005
field stddev 6.9267699642893e-006
field sum 0.20540863804097
field sqrsum 3.0646237810566e-006
field min 8.496e-007
field max 4.4142747e-005
statistic Basic.rack[10].node[0].app 	hops
field count 20080
field mean 5.0032868525896
field stddev 0.70992841883178
field sum 100466
field sqrsum 512780
field min 4
field max 6
statistic Basic.rack[10].node[1].app 	throughput
field count 20140
field mean 10070.5
field stddev 5814.0615465152
field sum 202819870
field sqrsum 2723262394490
field min 1
field max 20140
statistic Basic.rack[10].node[1].app 	"End-to-End Delay"
field count 20140
field mean 1.0287048430535e-005
field stddev 6.9678224991528e-006
field sum 0.20718115539097
field sqrsum 3.1090421134978e-006
field min 8.496e-007
field max 4.8667609e-005
statistic Basic.rack[10].node[1].app 	hops
field count 20140
field mean 5.0068520357498
field stddev 0.71010435570498
field sum 100838
field sqrsum 515036
field min 4
field max 6
statistic Basic.rack[10].node[2].app 	throughput
field count 19904
field mean 9952.5
field stddev 5745.9342147296
field sum 198094560
field sqrsum 2628648779680
field min 1
field max 19904
statistic Basic.rack[10].node[2].app 	"End-to-End Delay"
field count 19904
field mean 1.0267865677199e-005
field stddev 6.9381968790934e-006
field sum 0.20437159843897
field sqrsum 3.0565621978016e-006
field min 8.496e-007
field max 4.5771357e-005
statistic Basic.rack[10].node[2].app 	hops
field count 19904
field mean 5.001356511254
field stddev 0.70316870873181
field sum 99547
field sqrsum 507711
field min 4
field max 6
statistic Basic.rack[10].node[3].app 	throughput
field count 20131
field mean 10066
field stddev 5811.463470303
field sum 202638646
field sqrsum 2719613267966
field min 1
field max 20131
statistic Basic.rack[10].node[3].app 	"End-to-End Delay"
field count 20131
field mean 1.0210651488449e-005
field stddev 6.9756490529657e-006
field sum 0.20555062511397
field sqrsum 3.0783251488368e-006
field min 8.496e-007
field max 4.4158352e-005
statistic Basic.rack[10].node[3].app 	hops
field count 20131
field mean 4.9962744026626
field stddev 0.71053112171318
field sum 100580
field sqrsum 512688
field min 4
field max 6
statistic Basic.rack[10].node[4].app 	throughput
field count 20009
field mean 10005
field stddev 5776.2451038715
field sum 200190045
field sqrsum 2670468470285
field min 1
field max 20009
statistic Basic.rack[10].node[4].app 	"End-to-End Delay"
field count 20009
field mean 1.0269737613073e-005
field stddev 6.9994508758026e-006
field sum 0.20548717989997
field sqrsum 3.0905376101789e-006
field min 8.496e-007
field max 5.6761659e-005
statistic Basic.rack[10].node[4].app 	hops
field count 20009
field mean 5.0028487180769
field stddev 0.71388936533829
field sum 100102
field sqrsum 510992
field min 4
field max 6
statistic Basic.rack[10].node[5].app 	throughput
field count 20121
field mean 10061
field stddev 5808.5767189562
field sum 202437381
field sqrsum 2715562507861
field min 1
field max 20121
statistic Basic.rack[10].node[5].app 	"End-to-End Delay"
field count 20121
field mean 1.0243322716812e-005
field stddev 6.9336049877609e-006
field sum 0.20610589638497
field sqrsum 3.0784757584103e-006
field min 8.496e-007
field max 4.6009062e-005
statistic Basic.rack[10].node[5].app 	hops
field count 20121
field mean 5.0013418816162
field stddev 0.70770271278393
field sum 100632
field sqrsum 513372
field min 4
field max 6
statistic Basic.rack[10].node[6].app 	throughput
field count 19993
field mean 9997
field stddev 5771.6263017166
field sum 199870021
field sqrsum 2664067509909
field min 1
field max 19993
statistic Basic.rack[10].node[6].app 	"End-to-End Delay"
field count 19993
field mean 1.025739917506e-005
field stddev 6.8718793749076e-006
field sum 0.20507618170697
field sqrsum 3.047624998122e-006
field min 8.496e-007
field max 4.976724e-005
statistic Basic.rack[10].node[6].app 	hops
field count 19993
field mean 5.0024008402941
field stddev 0.70199099319372
field sum 100013
field sqrsum 510157
field min 4
field max 6
statistic Basic.rack[10].node[7].app 	throughput
field count 20043
field mean 10022
field stddev 5786.0600584508
field sum 200870946
field sqrsum 2684104537434
field min 1
field max 20043
statistic Basic.rack[10].node[7].app 	"End-to-End Delay"
field count 20043
field mean 1.0163357760065e-005
field stddev 6.8969602027126e-006
field sum 0.20370417958497
field sqrsum 3.0236775136201e-006
field min 8.496e-007
field max 5.3457449e-005
statistic Basic.rack[10].node[7].app 	hops
field count 20043
field mean 4.9942623359776
field stddev 0.70545864332875
field sum 100100
field sqrsum 509900
field min 4
field max 6
statistic Basic.rack[10].node[8].app 	throughput
field count 20164
field mean 10082.5
field stddev 5820.9897497476
field sum 203303530
field sqrsum 2733009353790
field min 1
field max 20164
statistic Basic.rack[10].node[8].app 	"End-to-End Delay"
field count 20164
field mean 1.0235017072554e-005
field stddev 6.9050638717766e-006
field sum 0.20637888425097
field sqrsum 3.0736613700425e-006
field min 8.496e-007
field max 4.3207832e-005
statistic Basic.rack[10].node[8].app 	hops
field count 20164
field mean 5.0025788534021
field stddev 0.70648809104291
field sum 100872
field sqrsum 514684
field min 4
field max 6
statistic Basic.rack[10].node[9].app 	throughput
field count 20058
field mean 10029.5
field stddev 5790.3901854711
field sum 201171711
field sqrsum 2690135176729
field min 1
field max 20058
statistic Basic.rack[10].node[9].app 	"End-to-End Delay"
field count 20058
field mean 1.0221547950642e-005
field stddev 6.91688717437e-006
field sum 0.20502380879397
field sqrsum 3.0552543259765e-006
field min 8.496e-007
field max 4.4639537e-005
statistic Basic.rack[10].node[9].app 	hops
field count 20058
field mean 5.0031907468342
field stddev 0.71052865133061
field sum 100354
field sqrsum 512216
field min 4
field max 6
statistic Basic.rack[10].eps.queue[0] 	dropsum
field count 0
field mean nan
field stddev nan
field sum 0
field sqrsum 0
field min nan
field max nan
statistic Basic.rack[10].eps.queue[1] 	dropsum
field count 0
field mean nan
field stddev nan
field sum 0
field sqrsum 0
field min nan
field max nan
statistic Basic.rack[10].eps.queue[2] 	dropsum
field count 0
field mean nan
field stddev nan
field sum 0
field sqrsum 0
field min nan
field max nan
statistic Basic.rack[10].eps.queue[3] 	dropsum
field count 0
field mean nan
field stddev nan
field sum 0
field sqrsum 0
field min nan
field max nan
statistic Basic.rack[11].node[0].app 	throughput
field count 19936
field mean 9968.5
field stddev 5755.1718190395
field sum 198732016
field sqrsum 2641347224656
field min 1
field max 19936
statistic Basic.rack[11].node[0].app 	"End-to-End Delay"
field count 19936
field mean 1.9666281620235e-005
field stddev 7.4665134699585e-006
field sum 0.392066990381
field sqrsum 8.8218526412511e-006
field min 8.992e-006
field max 6.4759017e-005
statistic Basic.rack[11].node[0].app 	hops
field count 19936
field mean 4.5070224719101
field stddev 1.1172320784543
field sum 89852
field sqrsum 429848
field min 3
field max 6
statistic Basic.rack[11].node[1].app 	throughput
field count 20242
field mean 10121.5
field stddev 5843.5064102529
field sum 204879403
field sqrsum 2764847543485
field min 1
field max 20242
statistic Basic.rack[11].node[1].app 	"End-to-End Delay"
field count 20242
field mean 1.957514712647e-005
field stddev 7.455677414081e-006
field sum 0.396240128134
field sqrsum 8.8815978169853e-006
field min 8.992e-006
field max 6.1344633e-005
statistic Basic.rack[11].node[1].app 	hops
field count 20242
field mean 4.5023713071831
field stddev 1.1243602043561
field sum 91137
field sqrsum 435921
field min 3
field max 6
statistic Basic.rack[11].node[2].app 	throughput
field count 20001
field mean 10001
field stddev 5773.9357027941
field sum 200030001
field sqrsum 2667266710001
field min 1
field max 20001
statistic Basic.rack[11].node[2].app 	"End-to-End Delay"
field count 20001
field mean 1.9697141441128e-005
field stddev 7.452419065311e-006
field sum 0.393962525964
field sqrsum 8.8707065949171e-006
field min 8.992e-006
field max 5.7949479e-005
statistic Basic.rack[11].node[2].app 	hops
field count 20001
field mean 4.4995750212489
field stddev 1.1131991373443
field sum 89996
field sqrsum 429728
field min 3
field max 6
statistic Basic.rack[11].node[3].app 	throughput
field count 19864
field mean 9932.5
field stddev 5734.3872093421
field sum 197299180
field sqrsum 2612833040740
field min 1
field max 19864
statistic Basic.rack[11].node[3].app 	"End-to-End Delay"
field count 19864
field mean 1.9623097093486e-005
field stddev 7.4498993455899e-006
field sum 0.389793200665
field sqrsum 8.7513661911826e-006
field min 8.992e-006
field max 6.7949471e-005
statistic Basic.rack[11].node[3].app 	hops
field count 19864
field mean 4.4999496576722
field stddev 1.1171161283978
field sum 89387
field sqrsum 427025
field min 3
field max 6
statistic Basic.rack[11].node[4].app 	throughput
field count 19743
field mean 9872
[...]
field sqrsum 8.460058593554e-006
field min 9.4416e-006
field max 6.595043e-005
statistic Basic.rack[13].node[1].app 	hops
field count 19807
field mean 5.5015398596456
field stddev 0.50001025104511
field sum 108969
field sqrsum 604449
field min 5
field max 6
statistic Basic.rack[13].node[2].app 	throughput
field count 20075
field mean 10038
field stddev 5795.2976627607
field sum 201512850
field sqrsum 2696980813450
field min 1
field max 20075
statistic Basic.rack[13].node[2].app 	"End-to-End Delay"
field count 20075
field mean 1.9486388928169e-005
field stddev 7.0078918222952e-006
field sum 0.391189257733
field sqrsum 8.6087111571037e-006
field min 9.4416e-006
field max 5.9653067e-005
statistic Basic.rack[13].node[2].app 	hops
field count 20075
field mean 5.5035118306351
field stddev 0.5000001203517
field sum 110483
field sqrsum 613063
field min 5
field max 6
statistic Basic.rack[13].node[3].app 	throughput
field count 19869
field mean 9935
field stddev 5735.8305850156
field sum 197398515
field sqrsum 2614806529195
field min 1
field max 19869
statistic Basic.rack[13].node[3].app 	"End-to-End Delay"
field count 19869
field mean 1.9448946624944e-005
field stddev 6.9967829600146e-006
field sum 0.386431120491
field sqrsum 8.4883156161614e-006
field min 9.4416e-006
field max 5.5146298e-005
statistic Basic.rack[13].node[3].app 	hops
field count 19869
field mean 5.5006291207409
field stddev 0.50001218708677
field sum 109292
field sqrsum 606142
field min 5
field max 6
statistic Basic.rack[13].node[4].app 	throughput
field count 20054
field mean 10027.5
field stddev 5789.2354849324
field sum 201091485
field sqrsum 2688526123955
field min 1
field max 20054
statistic Basic.rack[13].node[4].app 	"End-to-End Delay"
field count 20054
field mean 1.9480373498753e-005
field stddev 6.9995242027114e-006
field sum 0.390659410144
field sqrsum 8.5926546486651e-006
field min 9.4416e-006
field max 5.6554774e-005
statistic Basic.rack[13].node[4].app 	hops
field count 20054
field mean 5.4981549815498
field stddev 0.50000906261758
field sum 110260
field sqrsum 611240
field min 5
field max 6
statistic Basic.rack[13].node[5].app 	throughput
field count 19994
field mean 9997.5
field stddev 5771.9149768513
field sum 199890015
field sqrsum 2664467269945
field min 1
field max 19994
statistic Basic.rack[13].node[5].app 	"End-to-End Delay"
field count 19994
field mean 1.9458429346454e-005
field stddev 7.0053475719908e-006
field sum 0.389051836353
field sqrsum 8.5514920376088e-006
field min 9.4416e-006
field max 5.7616159e-005
statistic Basic.rack[13].node[5].app 	hops
field count 19994
field mean 5.5034010203061
field stddev 0.50000093685798
field sum 110035
field sqrsum 610565
field min 5
field max 6
statistic Basic.rack[13].node[6].app 	throughput
field count 19705
field mean 9853
field stddev 5688.4878629269
field sum 194153365
field sqrsum 2550592756005
field min 1
field max 19705
statistic Basic.rack[13].node[6].app 	"End-to-End Delay"
field count 19705
field mean 1.9404543472266e-005
field stddev 6.9858425448503e-006
field sum 0.382366529121
field sqrsum 8.3812424670624e-006
field min 9.4416e-006
field max 6.9853473e-005
statistic Basic.rack[13].node[6].app 	hops
field count 19705
field mean 5.4986044151231
field stddev 0.50001073990779
field sum 108350
field sqrsum 600700
field min 5
field max 6
statistic Basic.rack[13].node[7].app 	throughput
field count 20060
field mean 10030.5
field stddev 5790.9675357405
field sum 201211830
field sqrsum 2690939943810
field min 1
field max 20060
statistic Basic.rack[13].node[7].app 	"End-to-End Delay"
field count 20060
field mean 1.9493248756979e-005
field stddev 7.0166658799506e-006
field sum 0.391034570065
field sqrsum 8.6101109306768e-006
field min 9.4416e-006
field max 5.1106514e-005
statistic Basic.rack[13].node[7].app 	hops
field count 20060
field mean 5.4981056829511
field stddev 0.50000887453873
field sum 110292
field sqrsum 611412
field min 5
field max 6
statistic Basic.rack[13].node[8].app 	throughput
field count 19821
field mean 9911
field stddev 5721.9741785506
field sum 196445931
field sqrsum 2595902014211
field min 1
field max 19821
statistic Basic.rack[13].node[8].app 	"End-to-End Delay"
field count 19821
field mean 1.9458114228445e-005
field stddev 6.9948149137882e-006
field sum 0.385679282122
field sqrsum 8.4743333022154e-006
field min 9.4416e-006
field max 5.7083681e-005
statistic Basic.rack[13].node[8].app 	hops
field count 19821
field mean 5.5040108975329
field stddev 0.49999652539893
field sum 109095
field sqrsum 605415
field min 5
field max 6
statistic Basic.rack[13].node[9].app 	throughput
field count 19988
field mean 9994.5
field stddev 5770.1829260432
field sum 199770066
field sqrsum 2662069309494
field min 1
field max 19988
statistic Basic.rack[13].node[9].app 	"End-to-End Delay"
field count 19988
field mean 1.9491039607414e-005
field stddev 7.0313157928563e-006
field sum 0.389586899673
field sqrsum 8.5815990154105e-006
field min 9.4416e-006
field max 5.351905e-005
statistic Basic.rack[13].node[9].app 	hops
field count 19988
field mean 5.4995497298379
field stddev 0.5000123052255
field sum 109925
field sqrsum 609535
field min 5
field max 6
statistic Basic.rack[13].eps.queue[0] 	dropsum
field count 0
field mean nan
field stddev nan
field sum 0
field sqrsum 0
field min nan
field max nan
statistic Basic.rack[13].eps.queue[1] 	dropsum
field count 0
field mean nan
field stddev nan
field sum 0
field sqrsum 0
field min nan
field max nan
statistic Basic.rack[13].eps.queue[2] 	dropsum
field count 0
field mean nan
field stddev nan
field sum 0
field sqrsum 0
field min nan
field max nan
statistic Basic.rack[13].eps.queue[3] 	dropsum
field count 0
field mean nan
field stddev nan
field sum 0
field sqrsum 0
field min nan
field max nan
statistic Basic.rack[14].node[0].app 	throughput
field count 20020
field mean 10010.5
field stddev 5779.4205303531
field sum 200410210
field sqrsum 2674875072870
field min 1
field max 20020
statistic Basic.rack[14].node[0].app 	"End-to-End Delay"
field count 20020
field mean 1.0393248961787e-005
field stddev 7.0755099473577e-006
field sum 0.20807284421497
field sqrsum 3.1647608863957e-006
field min 8.496e-007
field max 4.7092625e-005
statistic Basic.rack[14].node[0].app 	hops
field count 20020
field mean 5.0024975024975
field stddev 0.70513927412791
field sum 100150
field sqrsum 510954
field min 4
field max 6
statistic Basic.rack[14].node[1].app 	throughput
field count 20050
field mean 10025.5
field stddev 5788.0807843936
field sum 201011275
field sqrsum 2686917712925
field min 1
field max 20050
statistic Basic.rack[14].node[1].app 	"End-to-End Delay"
field count 20050
field mean 1.0397929752567e-005
field stddev 7.0625074015068e-006
field sum 0.20847849153897
field sqrsum 3.1677689973992e-006
field min 8.496e-007
field max 5.3362499e-005
statistic Basic.rack[14].node[1].app 	hops
field count 20050
field mean 5.0004987531172
field stddev 0.70156530389419
field sum 100260
field sqrsum 511218
field min 4
field max 6
statistic Basic.rack[14].node[2].app 	throughput
field count 19714
field mean 9857.5
field stddev 5691.0859391391
field sum 194330755
field sqrsum 2554089112965
field min 1
field max 19714
statistic Basic.rack[14].node[2].app 	"End-to-End Delay"
field count 19714
field mean 1.0455075377903e-005
field stddev 7.0841434112243e-006
field sum 0.20611135599997
field sqrsum 3.1442084004184e-006
field min 8.496e-007
field max 4.9510422e-005
statistic Basic.rack[14].node[2].app 	hops
field count 19714
field mean 5.0068986507051
field stddev 0.70439560917523
field sum 98706
field sqrsum 503992
field min 4
field max 6
statistic Basic.rack[14].node[3].app 	throughput
field count 20196
field mean 10098.5
field stddev 5830.2273540575
field sum 203949306
field sqrsum 2746041439086
field min 1
field max 20196
statistic Basic.rack[14].node[3].app 	"End-to-End Delay"
field count 20196
field mean 1.0388385867794e-005
field stddev 7.1404777970247e-006
field sum 0.20980384098597
field sqrsum 3.2091940726218e-006
field min 8.496e-007
field max 5.4952245e-005
statistic Basic.rack[14].node[3].app 	hops
field count 20196
field mean 5.000742721331
field stddev 0.71079076647099
field sum 100995
field sqrsum 515253
field min 4
field max 6
statistic Basic.rack[14].node[4].app 	throughput
field count 19849
field mean 9925
field stddev 5730.0570823218
field sum 197001325
field sqrsum 2606918533725
field min 1
field max 19849
statistic Basic.rack[14].node[4].app 	"End-to-End Delay"
field count 19849
field mean 1.0361132060203e-005
field stddev 7.1073846191746e-006
field sum 0.20565811026297
field sqrsum 3.1334708949331e-006
field min 8.496e-007
field max 5.5492776e-005
statistic Basic.rack[14].node[4].app 	hops
field count 19849
field mean 4.998690110333
field stddev 0.70916887473252
field sum 99219
field sqrsum 505947
field min 4
field max 6
statistic Basic.rack[14].node[5].app 	throughput
field count 19962
field mean 9981.5
field stddev 5762.6773725413
field sum 199250703
field sqrsum 2651694772425
field min 1
field max 19962
statistic Basic.rack[14].node[5].app 	"End-to-End Delay"
field count 19962
field mean 1.0334662425707e-005
field stddev 7.037833426785e-006
field sum 0.20630053134197
field sqrsum 3.1207366236524e-006
field min 8.496e-007
field max 5.0410325e-005
statistic Basic.rack[14].node[5].app 	hops
field count 19962
field mean 4.9965935277026
field stddev 0.70196102390974
field sum 99742
field sqrsum 508206
field min 4
field max 6
statistic Basic.rack[14].node[6].app 	throughput
field count 20088
field mean 10044.5
field stddev 5799.0504395116
field sum 201773916
field sqrsum 2702223541044
field min 1
field max 20088
statistic Basic.rack[14].node[6].app 	"End-to-End Delay"
field count 20088
field mean 1.0434480292163e-005
field stddev 7.1337576496127e-006
field sum 0.20960784010897
field sqrsum 3.2093863141118e-006
field min 8.496e-007
field max 5.1720006e-005
statistic Basic.rack[14].node[6].app 	hops
field count 20088
field mean 5.003733572282
field stddev 0.70637489988143
field sum 100515
field sqrsum 512973
field min 4
field max 6
statistic Basic.rack[14].node[7].app 	throughput
field count 20172
field mean 10086.5
field stddev 5823.2991508251
field sum 203464878
field sqrsum 2736263500970
field min 1
field max 20172
statistic Basic.rack[14].node[7].app 	"End-to-End Delay"
field count 20172
field mean 1.0407681835117e-005
field stddev 7.1079529105114e-006
field sum 0.20994375797797
field sqrsum 3.2041271599372e-006
field min 8.496e-007
field max 4.7072474e-005
statistic Basic.rack[14].node[7].app 	hops
field count 20172
field mean 5.0029744199881
field stddev 0.70732835175329
field sum 100920
field sqrsum 514992
field min 4
field max 6
statistic Basic.rack[14].node[8].app 	throughput
field count 20058
field mean 10029.5
field stddev 5790.3901854711
field sum 201171711
field sqrsum 2690135176729
field min 1
field max 20058
statistic Basic.rack[14].node[8].app 	"End-to-End Delay"
field count 20058
field mean 1.0368891892211e-005
field stddev 7.0679958622466e-006
field sum 0.20797923357397
field sqrsum 3.1584930231621e-006
field min 8.496e-007
field max 6.690981e-005
statistic Basic.rack[14].node[8].app 	hops
field count 20058
field mean 4.9989031807758
field stddev 0.70163790562484
field sum 100268
field sqrsum 511104
field min 4
field max 6
statistic Basic.rack[14].node[9].app 	throughput
field count 19814
field mean 9907.5
field stddev 5719.9534526078
field sum 196307205
field sqrsum 2593152742315
field min 1
field max 19814
statistic Basic.rack[14].node[9].app 	"End-to-End Delay"
field count 19814
field mean 1.0339189398858e-005
field stddev 7.1366982556609e-006
field sum 0.20486069874897
field sqrsum 3.1272184342026e-006
field min 8.496e-007
field max 4.6133174e-005
statistic Basic.rack[14].node[9].app 	hops
field count 19814
field mean 4.9942464923791
field stddev 0.70955950658825
field sum 98956
field sqrsum 504186
field min 4
field max 6
statistic Basic.rack[14].eps.queue[0] 	dropsum
field count 0
field mean nan
field stddev nan
field sum 0
field sqrsum 0
field min nan
field max nan
statistic Basic.rack[14].eps.queue[1] 	dropsum
field count 0
field mean nan
field stddev nan
field sum 0
field sqrsum 0
field min nan
field max nan
statistic Basic.rack[14].eps.queue[2] 	dropsum
field count 0
field mean nan
field stddev nan
field sum 0
field sqrsum 0
field min nan
field max nan
statistic Basic.rack[14].eps.queue[3] 	dropsum
field count 0
field mean nan
field stddev nan
field sum 0
field sqrsum 0
field min nan
field max nan
statistic Basic.rack[15].node[0].app 	throughput
field count 19899
field mean 9950
field stddev 5744.4908390561
field sum 197995050
field sqrsum 2626668331650
field min 1
field max 19899
statistic Basic.rack[15].node[0].app 	"End-to-End Delay"
field count 19899
field mean 1.922279858611e-005
field stddev 7.0580186772311e-006
field sum 0.382514469065
field sqrsum 8.3442299540519e-006
field min 8.992e-006
field max 6.3994298e-005
statistic Basic.rack[15].node[0].app 	hops
field count 19899
field mean 4.5042966983265
field stddev 1.1114943870547
field sum 89631
field sqrsum 428307
field min 3
field max 6
statistic Basic.rack[15].node[1].app 	throughput
field count 20020
field mean 10010.5
field stddev 5779.4205303531
field sum 200410210
field sqrsum 2674875072870
field min 1
field max 20020
statistic Basic.rack[15].node[1].app 	"End-to-End Delay"
field count 20020
field mean 1.9158959268431e-005
field stddev 7.0017361447138e-006
field sum 0.383562364554
field sqrsum 8.3300733620689e-006
field min 8.992e-006
field max 6.5623102e-005
statistic Basic.rack[15].node[1].app 	hops
field count 20020
field mean 4.5119380619381
field stddev 1.1168358804655
field sum 90329
field sqrsum 432529
field min 3
field max 6
statistic Basic.rack[15].node[2].app 	throughput
field count 20027
field mean 10014
field stddev 5781.4412562959
field sum 200550378
field sqrsum 2677681796930
field min 1
field max 20027
statistic Basic.rack[15].node[2].app 	"End-to-End Delay"
field count 20027
field mean 1.9124254327158e-005
field stddev 6.9817878678662e-006
field sum 0.38300144141
field sqrsum 8.3007915892382e-006
field min 8.992e-006
field max 5.9387622e-005
statistic Basic.rack[15].node[2].app 	hops
field count 20027
field mean 4.5052179557597
field stddev 1.119188044851
field sum 90226
field sqrsum 431572
field min 3
field max 6
statistic Basic.rack[15].node[3].app 	throughput
field count 20082
field mean 10041.5
field stddev 5797.3183887035
field sum 201653403
field sqrsum 2699802977165
field min 1
field max 20082
statistic Basic.rack[15].node[3].app 	"End-to-End Delay"
field count 20082
field mean 1.9167674911563e-005
field stddev 7.024534942362e-006
field sum 0.384925247574
field sqrsum 8.3690007052641e-006
field min 8.992e-006
field max 8.3443068e-005
statistic Basic.rack[15].node[3].app 	hops
field count 20082
field mean 4.5011453042526
field stddev 1.1155642180643
field sum 90392
field sqrsum 431858
field min 3
field max 6
statistic Basic.rack[15].node[4].app 	throughput
field count 20064
field mean 10032.5
field stddev 5792.1222362792
field sum 201292080
field sqrsum 2692549959440
field min 1
field max 20064
statistic Basic.rack[15].node[4].app 	"End-to-End Delay"
field count 20064
field mean 1.9124873081838e-005
field stddev 7.0563753774117e-006
field sum 0.383721453514
field sqrsum 8.3376096898809e-006
field min 8.992e-006
field max 8.7285189e-005
statistic Basic.rack[15].node[4].app 	hops
field count 20064
field mean 4.5098185805423
field stddev 1.123710683861
field sum 90485
field sqrsum 433405
field min 3
field max 6
statistic Basic.rack[15].node[5].app 	throughput
field count 20126
field mean 10063.5
field stddev 5810.0200946296
field sum 202538001
field sqrsum 2717587384751
field min 1
field max 20126
statistic Basic.rack[15].node[5].app 	"End-to-End Delay"
field count 20126
field mean 1.9117621199791e-005
field stddev 7.0223484074645e-006
field sum 0.384761244267
field sqrsum 8.3481514355176e-006
field min 8.992e-006
field max 7.6238193e-005
statistic Basic.rack[15].node[5].app 	hops
field count 20126
field mean 4.5088939680016
field stddev 1.121221782123
field sum 90746
field sqrsum 434464
field min 3
field max 6
statistic Basic.rack[15].node[6].app 	throughput
field count 19897
field mean 9949
field stddev 5743.9134887868
field sum 197955253
field sqrsum 2625876431045
field min 1
field max 19897
statistic Basic.rack[15].node[6].app 	"End-to-End Delay"
field count 19897
field mean 1.9090102466754e-005
field stddev 6.9969527902383e-006
field sum 0.379835768781
field sqrsum 8.2251591493155e-006
field min 8.992e-006
field max 6.5040749e-005
statistic Basic.rack[15].node[6].app 	hops
field count 19897
field mean 4.4859023973463
field stddev 1.1168711956689
field sum 89256
field sqrsum 425212
field min 3
field max 6
statistic Basic.rack[15].node[7].app 	throughput
field count 19764
field mean 9882.5
field stddev 5705.5196958735
field sum 195317730
field sqrsum 2573571516390
field min 1
field max 19764
statistic Basic.rack[15].node[7].app 	"End-to-End Delay"
field count 19764
field mean 1.9151272688373e-005
field stddev 7.0766538926512e-006
field sum 0.378505753413
field sqrsum 8.2385787738728e-006
field min 8.992e-006
field max 7.2447724e-005
statistic Basic.rack[15].node[7].app 	hops
field count 19764
field mean 4.4937259664036
field stddev 1.1177278244469
field sum 88814
field sqrsum 423796
field min 3
field max 6
statistic Basic.rack[15].node[8].app 	throughput
field count 20029
field mean 10015
field stddev 5782.0186065652
field sum 200590435
field sqrsum 2678484078555
field min 1
field max 20029
statistic Basic.rack[15].node[8].app 	"End-to-End Delay"
field count 20029
field mean 1.9097036074192e-005
field stddev 6.980252797365e-006
field sum 0.38249453553
field sqrsum 8.2803547955154e-006
field min 8.992e-006
field max 5.7135375e-005
statistic Basic.rack[15].node[8].app 	hops
field count 20029
field mean 4.4903390084378
field stddev 1.1159415639284
field sum 89937
field sqrsum 428789
field min 3
field max 6
statistic Basic.rack[15].node[9].app 	throughput
field count 19950
field mean 9975.5
field stddev 5759.2132709251
field sum 199011225
field sqrsum 2646915629575
field min 1
field max 19950
statistic Basic.rack[15].node[9].app 	"End-to-End Delay"
field count 19950
field mean 1.9115599064561e-005
field stddev 7.0593271032386e-006
field sum 0.381356201338
field sqrsum 8.283992689515e-006
field min 8.992e-006
field max 6.3105236e-005
statistic Basic.rack[15].node[9].app 	hops
field count 19950
field mean 4.5037593984962
field stddev 1.1226641787035
field sum 89850
field sqrsum 429806
field min 3
field max 6
statistic Basic.rack[15].eps.queue[0] 	dropsum
field count 0
field mean nan
field stddev nan
field sum 0
field sqrsum 0
field min nan
field max nan
statistic Basic.rack[15].eps.queue[1] 	dropsum
field count 0
field mean nan
field stddev nan
field sum 0
field sqrsum 0
field min nan
field max nan
statistic Basic.rack[15].eps.queue[2] 	dropsum
field count 0
field mean nan
field stddev nan
field sum 0
field sqrsum 0
field min nan
field max nan
statistic Basic.rack[15].eps.queue[3] 	dropsum
field count 0
field mean nan
field stddev nan
field sum 0
field sqrsum 0
field min nan
field max nan
