version 2
run Basic-61-20180510-19:01:34-11780
attr configname Basic
attr datetime 20180510-19:01:34
attr experiment Basic
attr inifile omnetpp.ini
attr iterationvars "$0=exponential(0.08 ms), $1=7, $2=3"
attr iterationvarsf exponential(0.08_ms),7,3-
attr measurement "$0=exponential(0.08 ms), $1=7, $2=3"
attr network Networks.Basic
attr processid 11780
attr repetition 0
attr replication #0
attr resultdir results
attr runnumber 61
attr seedset 61
param **.frameCapacity 50
param **.packetLength "1024 bytes"
param **.pattern 7
param **.sendIaTime "exponential(0.08 ms)"
param **.tp 3

statistic Basic.rack[0].node[0].app 	throughput
field count 126176
field mean 63088.5
field stddev 36424.018119916
field sum 7960254576
field sqrsum 6.6959804100578e+014
field min 1
field max 126176
statistic Basic.rack[0].node[0].app 	"End-to-End Delay"
field count 126176
field mean 1.7580103853194e-005
field stddev 1.746876899579e-005
field sum 2.2181871837806
field sqrsum 7.749925785624e-005
field min 4e-007
field max 0.000185003213
statistic Basic.rack[0].node[0].app 	hops
field count 126176
field mean 2.9984624651281
field stddev 0.70521115959511
field sum 378334
field sqrsum 1197170
field min 2
field max 4
statistic Basic.rack[0].node[1].app 	throughput
field count 124997
field mean 62499
field stddev 36083.670136226
field sum 7812187503
field sqrsum 6.510026049375e+014
field min 1
field max 124997
statistic Basic.rack[0].node[1].app 	"End-to-End Delay"
field count 124997
field mean 1.7567365306093e-005
field stddev 1.746223726119e-005
field sum 2.1958679611657
field sqrsum 7.6690611189581e-005
field min 4e-007
field max 0.000170330482
statistic Basic.rack[0].node[1].app 	hops
field count 124997
field mean 2.9994959879037
field stddev 0.70678407691268
field sum 374928
field sqrsum 1187036
field min 2
field max 4
statistic Basic.rack[0].node[2].app 	throughput
field count 125273
field mean 62637
field stddev 36163.344473375
field sum 7846724901
field sqrsum 6.5532446125695e+014
field min 1
field max 125273
statistic Basic.rack[0].node[2].app 	"End-to-End Delay"
field count 125273
field mean 1.7607504160574e-005
field stddev 1.7553489427767e-005
field sum 2.2057448687076
field sqrsum 7.7437095836854e-005
field min 4e-007
field max 0.00017213168
statistic Basic.rack[0].node[2].app 	hops
field count 125273
field mean 3.0001357036233
field stddev 0.70739458275001
field sum 375836
field sqrsum 1190246
field min 2
field max 4
statistic Basic.rack[0].node[3].app 	throughput
field count 125073
field mean 62537
field stddev 36105.609446456
field sum 7821690201
field sqrsum 6.5219077956985e+014
field min 1
field max 125073
statistic Basic.rack[0].node[3].app 	"End-to-End Delay"
field count 125073
field mean 1.7720137889109e-005
field stddev 1.7611606770918e-005
field sum 2.2163108062046
field sqrsum 7.8066751868649e-005
field min 4e-007
field max 0.00018305668
statistic Basic.rack[0].node[3].app 	hops
field count 125073
field mean 3.0037817914338
field stddev 0.70610658110159
field sum 375692
field sqrsum 1190856
field min 2
field max 4
statistic Basic.rack[0].node[4].app 	throughput
field count 124663
field mean 62332
field stddev 35987.252641271
field sum 7770494116
field sqrsum 6.4579799548664e+014
field min 1
field max 124663
statistic Basic.rack[0].node[4].app 	"End-to-End Delay"
field count 124663
field mean 1.7572523078304e-005
field stddev 1.7409369293489e-005
field sum 2.1906434445107
field sqrsum 7.6278456769588e-005
field min 4e-007
field max 0.000193323083
statistic Basic.rack[0].node[4].app 	hops
field count 124663
field mean 3.0000962595157
field stddev 0.70623839605642
field sum 374001
field sqrsum 1184217
field min 2
field max 4
statistic Basic.rack[0].node[5].app 	throughput
field count 125100
field mean 62550.5
field stddev 36113.40367509
field sum 7825067550
field sqrsum 6.5261324202585e+014
field min 1
field max 125100
statistic Basic.rack[0].node[5].app 	"End-to-End Delay"
field count 125100
field mean 1.756297221357e-005
field stddev 1.7514971600905e-005
field sum 2.1971278239176
field sqrsum 7.6965244342478e-005
field min 4e-007
field max 0.000172773194
statistic Basic.rack[0].node[5].app 	hops
field count 125100
field mean 2.996826538769
field stddev 0.70806838885749
field sum 374903
field sqrsum 1186239
field min 2
field max 4
statistic Basic.rack[0].node[6].app 	throughput
field count 124990
field mean 62495.5
field stddev 36081.649410284
field sum 7811312545
field sqrsum 6.5089324043722e+014
field min 1
field max 124990
statistic Basic.rack[0].node[6].app 	"End-to-End Delay"
field count 124990
field mean 1.7589659586172e-005
field stddev 1.7497336173869e-005
field sum 2.1985315516756
field sqrsum 7.6937650506603e-005
field min 4e-007
field max 0.000187856504
statistic Basic.rack[0].node[6].app 	hops
field count 124990
field mean 3.0013521081687
field stddev 0.70521623420353
field sum 375139
field sqrsum 1188085
field min 2
field max 4
statistic Basic.rack[0].node[7].app 	throughput
field count 124806
field mean 62403.5
field stddev 36028.533185518
field sum 7788331221
field sqrsum 6.4802290702249e+014
field min 1
field max 124806
statistic Basic.rack[0].node[7].app 	"End-to-End Delay"
field count 124806
field mean 1.7535753421363e-005
field stddev 1.743484348881e-005
field sum 2.1885672415066
field sqrsum 7.6315621543387e-005
field min 4e-007
field max 0.00019173684
statistic Basic.rack[0].node[7].app 	hops
field count 124806
field mean 2.9981250901399
field stddev 0.70712412519521
field sum 374184
field sqrsum 1184256
field min 2
field max 4
statistic Basic.rack[0].node[8].app 	throughput
field count 125097
field mean 62549
field stddev 36112.537649686
field sum 7824692253
field sqrsum 6.5256629274644e+014
field min 1
field max 125097
statistic Basic.rack[0].node[8].app 	"End-to-End Delay"
field count 125097
field mean 1.7574163505301e-005
field stddev 1.7494382110663e-005
field sum 2.1984751320227
field sqrsum 7.6922418238661e-005
field min 4e-007
field max 0.000175518604
statistic Basic.rack[0].node[8].app 	hops
field count 125097
field mean 3.0003197518725
field stddev 0.7077395072751
field sum 375331
field sqrsum 1188773
field min 2
field max 4
statistic Basic.rack[0].node[9].app 	throughput
field count 124694
field mean 62347.5
field stddev 35996.201570444
field sum 7774359165
field sqrsum 6.462798859334e+014
field min 1
field max 124694
statistic Basic.rack[0].node[9].app 	"End-to-End Delay"
field count 124694
field mean 1.7552793565477e-005
field stddev 1.7459647000234e-005
field sum 2.1887280408536
field sqrsum 7.6429614986744e-005
field min 4e-007
field max 0.000171056633
statistic Basic.rack[0].node[9].app 	hops
field count 124694
field mean 2.9987088392385
field stddev 0.70613239195092
field sum 373921
field sqrsum 1183455
field min 2
field max 4
statistic Basic.rack[0].eps.queue[0] 	dropsum
field count 0
field mean nan
field stddev nan
field sum 0
field sqrsum 0
field min nan
field max nan
statistic Basic.rack[0].eps.queue[1] 	dropsum
field count 0
field mean nan
field stddev nan
field sum 0
field sqrsum 0
field min nan
field max nan
statistic Basic.rack[0].eps.queue[2] 	dropsum
field count 0
field mean nan
field stddev nan
field sum 0
field sqrsum 0
field min nan
field max nan
statistic Basic.rack[0].eps.queue[3] 	dropsum
field count 0
field mean nan
field stddev nan
field sum 0
field sqrsum 0
field min nan
field max nan
statistic Basic.rack[1].node[0].app 	throughput
field count 124897
field mean 62449
field stddev 36054.802622767
field sum 7799692753
field sqrsum 6.4944141707854e+014
field min 1
field max 124897
statistic Basic.rack[1].node[0].app 	"End-to-End Delay"
field count 124897
field mean 1.760942236609e-005
field stddev 1.780590142975e-005
field sum 2.1993640252576
field sqrsum 7.8327822560215e-005
field min 4e-007
field max 0.00024805317
statistic Basic.rack[1].node[0].app 	hops
field count 124897
field mean 2.9970695853383
field stddev 0.70722525347663
field sum 374325
field sqrsum 1184347
field min 2
field max 4
statistic Basic.rack[1].node[1].app 	throughput
field count 124918
field mean 62459.5
field stddev 36060.864800593
field sum 7802315821
field sqrsum 6.4976905925706e+014
field min 1
field max 124918
statistic Basic.rack[1].node[1].app 	"End-to-End Delay"
field count 124918
field mean 1.7603022669692e-005
field stddev 1.7708040234303e-005
field sum 2.1989343858526
field sqrsum 7.7878701261607e-005
field min 4e-007
field max 0.00023277382
statistic Basic.rack[1].node[1].app 	hops
field count 124918
field mean 3.0003842520694
field stddev 0.70779410719926
field sum 374802
field sqrsum 1187130
field min 2
field max 4
statistic Basic.rack[1].node[2].app 	throughput
field count 125284
field mean 62642.5
field stddev 36166.519899856
field sum 7848102970
field sqrsum 6.5549710436331e+014
field min 1
field max 125284
statistic Basic.rack[1].node[2].app 	"End-to-End Delay"
field count 125284
field mean 1.7624005490243e-005
field stddev 1.7701339116471e-005
field sum 2.2080059038396
field sqrsum 7.8169758472342e-005
field min 4e-007
field max 0.000218745046
statistic Basic.rack[1].node[2].app 	hops
field count 125284
field mean 3.0012930621628
field stddev 0.70883340016446
field sum 376014
field sqrsum 1191476
field min 2
field max 4
statistic Basic.rack[1].node[3].app 	throughput
field count 125368
field mean 62684.5
field stddev 36190.768611162
field sum 7858630396
field sqrsum 6.5681646986728e+014
field min 1
field max 125368
statistic Basic.rack[1].node[3].app 	"End-to-End Delay"
field count 125368
field mean 1.7576542271797e-005
field stddev 1.7610995341859e-005
field sum 2.2035359515307
field sqrsum 7.7612761422468e-005
field min 4e-007
field max 0.000224355699
statistic Basic.rack[1].node[3].app 	hops
field count 125368
field mean 2.9961473422245
field stddev 0.70773617883064
field sum 375621
field sqrsum 1188211
field min 2
field max 4
statistic Basic.rack[1].node[4].app 	throughput
field count 124824
field mean 62412.5
field stddev 36033.729337941
field sum 7790577900
field sqrsum 6.483033273857e+014
field min 1
field max 124824
statistic Basic.rack[1].node[4].app 	"End-to-End Delay"
field count 124824
field mean 1.7616402780488e-005
field stddev 1.7672900177947e-005
field sum 2.1989498606716
field sqrsum 7.7723728869225e-005
field min 4e-007
field max 0.000230262041
statistic Basic.rack[1].node[4].app 	hops
field count 124824
field mean 3.0027238351599
field stddev 0.70833823794879
field sum 374812
field sqrsum 1188086
field min 2
field max 4
statistic Basic.rack[1].node[5].app 	throughput
field count 124899
field mean 62450
field stddev 36055.379973036
field sum 7799942550
field sqrsum 6.4947261634915e+014
field min 1
field max 124899
statistic Basic.rack[1].node[5].app 	"End-to-End Delay"
field count 124899
field mean 1.7633958257989e-005
field stddev 1.7673334340076e-005
field sum 2.2024637524646
field sqrsum 7.7849637844548e-005
field min 4e-007
field max 0.000251684521
statistic Basic.rack[1].node[5].app 	hops
field count 124899
field mean 3.0007606145766
field stddev 0.7087914844251
field sum 374792
field sqrsum 1187408
field min 2
field max 4
statistic Basic.rack[1].node[6].app 	throughput
field count 124396
field mean 62198.5
field stddev 35910.176380334
field sum 7737244606
field sqrsum 6.4165743242019e+014
field min 1
field max 124396
statistic Basic.rack[1].node[6].app 	"End-to-End Delay"
field count 124396
field mean 1.7556983110893e-005
field stddev 1.7563855986108e-005
field sum 2.1840184710627
field sqrsum 7.6719269180472e-005
field min 4e-007
field max 0.000248546629
statistic Basic.rack[1].node[6].app 	hops
field count 124396
field mean 2.9995417859095
field stddev 0.7072402027484
field sum 373131
field sqrsum 1181443
field min 2
field max 4
statistic Basic.rack[1].node[7].app 	throughput
field count 124788
field mean 62394.5
field stddev 36023.337033096
field sum 7786084866
field sqrsum 6.4774256753389e+014
field min 1
field max 124788
statistic Basic.rack[1].node[7].app 	"End-to-End Delay"
field count 124788
field mean 1.7621105687307e-005
field stddev 1.7653109841565e-005
field sum 2.1989025365077
field sqrsum 7.7634752199536e-005
field min 4e-007
field max 0.000243597057
statistic Basic.rack[1].node[7].app 	hops
field count 124788
field mean 2.9991185049845
field stddev 0.70738100429743
field sum 374254
field sqrsum 1184874
field min 2
field max 4
statistic Basic.rack[1].node[8].app 	throughput
field count 125396
field mean 62698.5
field stddev 36198.851514931
field sum 7862141106
field sqrsum 6.5725665146569e+014
field min 1
field max 125396
statistic Basic.rack[1].node[8].app 	"End-to-End Delay"
field count 125396
field mean 1.7603467526329e-005
field stddev 1.7655978634851e-005
field sum 2.2074044139316
field sqrsum 7.7947804377123e-005
field min 4e-007
field max 0.000233107828
statistic Basic.rack[1].node[8].app 	hops
field count 125396
field mean 2.9999043031676
field stddev 0.70749294315697
field sum 376176
field sqrsum 1191258
field min 2
field max 4
statistic Basic.rack[1].node[9].app 	throughput
field count 124922
field mean 62461.5
field stddev 36062.019501132
field sum 7802815503
field sqrsum 6.4983147978234e+014
field min 1
field max 124922
statistic Basic.rack[1].node[9].app 	"End-to-End Delay"
field count 124922
field mean 1.7646347551173e-005
field stddev 1.7607607052639e-005
field sum 2.2044170287876
field sqrsum 7.7628895104465e-005
field min 4e-007
field max 0.000223168092
statistic Basic.rack[1].node[9].app 	hops
field count 124922
field mean 3.0027457133251
field stddev 0.70597128248117
field sum 375109
field sqrsum 1188617
field min 2
field max 4
statistic Basic.rack[1].eps.queue[0] 	dropsum
field count 0
field mean nan
field stddev nan
field sum 0
field sqrsum 0
field min nan
field max nan
statistic Basic.rack[1].eps.queue[1] 	dropsum
field count 0
field mean nan
field stddev nan
field sum 0
field sqrsum 0
field min nan
field max nan
statistic Basic.rack[1].eps.queue[2] 	dropsum
field count 0
field mean nan
field stddev nan
field sum 0
field sqrsum 0
field min nan
field max nan
statistic Basic.rack[1].eps.queue[3] 	dropsum
field count 0
field mean nan
field stddev nan
field sum 0
field sqrsum 0
field min nan
field max nan
statistic Basic.rack[2].node[0].app 	throughput
field count 124947
field mean 62474
field stddev 36069.236379497
field sum 7805938878
field sqrsum 6.5022169863927e+014
field min 1
field max 124947
statistic Basic.rack[2].node[0].app 	"End-to-End Delay"
field count 124947
field mean 1.1951006271295e-005
field stddev 1.6285492451803e-005
field sum 1.4932423805795
field sqrsum 5.0983585372311e-005
field min 4e-007
field max 0.000253720819
statistic Basic.rack[2].node[0].app 	hops
field count 124947
field mean 3.2513945913067
field stddev 0.82981264535986
field sum 406252
field sqrsum 1406922
field min 2
field max 4
statistic Basic.rack[2].node[1].app 	throughput
field count 124823
field mean 62412
field stddev 36033.440662807
field sum 7790453076
field sqrsum 6.4828774635472e+014
field min 1
field max 124823
statistic Basic.rack[2].node[1].app 	"End-to-End Delay"
field count 124823
field mean 1.1923441456723e-005
field stddev 1.6197015862406e-005
field sum 1.4883197329526
field sqrsum 5.0492111449157e-005
field min 4e-007
field max 0.00024432344
statistic Basic.rack[2].node[1].app 	hops
field count 124823
field mean 3.2485679722487
field stddev 0.82948250307148
field sum 405496
field sqrsum 1403164
field min 2
field max 4
statistic Basic.rack[2].node[2].app 	throughput
field count 124868
field mean 62434.5
field stddev 36046.431043863
field sum 7796071146
field sqrsum 6.4898913992953e+014
field min 1
field max 124868
statistic Basic.rack[2].node[2].app 	"End-to-End Delay"
field count 124868
field mean 1.1845719922907e-005
field stddev 1.6167713221476e-005
field sum 1.4791513553336
field sqrsum 5.0161216001898e-005
field min 4e-007
field max 0.000232598947
statistic Basic.rack[2].node[2].app 	hops
field count 124868
field mean 3.2500480507416
field stddev 0.8290291149776
field sum 405827
field sqrsum 1404777
field min 2
field max 4
statistic Basic.rack[2].node[3].app 	throughput
field count 125536
field mean 62768.5
field stddev 36239.266033774
field sum 7879706416
field sqrsum 6.5946050966146e+014
field min 1
field max 125536
statistic Basic.rack[2].node[3].app 	"End-to-End Delay"
field count 125536
field mean 1.1804923432597e-005
field stddev 1.6039228393757e-005
field sum 1.4819428680346
field sqrsum 4.9788960435414e-005
field min 4e-007
field max 0.000238333887
statistic Basic.rack[2].node[3].app 	hops
field count 125536
field mean 3.2474907596227
field stddev 0.82965753018448
field sum 407677
field sqrsum 1410337
field min 2
field max 4
statistic Basic.rack[2].node[4].app 	throughput
field count 125294
field mean 62647.5
field stddev 36169.406651202
field sum 7849355865
field sqrsum 6.556540789515e+014
field min 1
field max 125294
statistic Basic.rack[2].node[4].app 	"End-to-End Delay"
field count 125294
field mean 1.1981590979053e-005
field stddev 1.6323707083137e-005
field sum 1.5012214601295
field sqrsum 5.1373021901246e-005
field min 4e-007
field max 0.00022211392
statistic Basic.rack[2].node[4].app 	hops
field count 125294
field mean 3.2503312209683
field stddev 0.83008179726009
field sum 407247
field sqrsum 1410019
field min 2
field max 4
statistic Basic.rack[2].node[5].app 	throughput
field count 125022
field mean 62511.5
field stddev 36090.887014591
field sum 7815312753
field sqrsum 6.513932924413e+014
field min 1
field max 125022
statistic Basic.rack[2].node[5].app 	"End-to-End Delay"
field count 125022
field mean 1.1910879275396e-005
field stddev 1.6120789174114e-005
field sum 1.4891219487686
field sqrsum 5.022718968437e-005
field min 4e-007
field max 0.000239366144
statistic Basic.rack[2].node[5].app 	hops
field count 125022
field mean 3.2534113995937
field stddev 0.82756045365003
field sum 406748
field sqrsum 1408940
field min 2
field max 4
statistic Basic.rack[2].node[6].app 	throughput
field count 125429
field mean 62715
field stddev 36208.377794372
field sum 7866279735
field sqrsum 6.5777568934746e+014
field min 1
field max 125429
statistic Basic.rack[2].node[6].app 	"End-to-End Delay"
field count 125429
field mean 1.1875411238052e-005
field stddev 1.6146661427699e-005
field sum 1.4895209561776
field sqrsum 5.0389594190907e-005
field min 4e-007
field max 0.000269091622
statistic Basic.rack[2].node[6].app 	hops
field count 125429
field mean 3.2515048354049
field stddev 0.82903252641781
field sum 407833
field sqrsum 1412277
field min 2
field max 4
statistic Basic.rack[2].node[7].app 	throughput
field count 124869
field mean 62435
field stddev 36046.719718998
field sum 7796196015
field sqrsum 6.490047321967e+014
field min 1
field max 124869
statistic Basic.rack[2].node[7].app 	"End-to-End Delay"
field count 124869
field mean 1.1892306182788e-005
field stddev 1.6254565049508e-005
field sum 1.4849803807386
field sqrsum 5.0651326144948e-005
field min 4e-007
field max 0.000229276702
statistic Basic.rack[2].node[7].app 	hops
field count 124869
field mean 3.2480920004164
field stddev 0.83051022656826
field sum 405586
field sqrsum 1403508
field min 2
field max 4
statistic Basic.rack[2].node[8].app 	throughput
field count 124743
field mean 62372
field stddev 36010.346652039
field sum 7780470396
field sqrsum 6.4704207256228e+014
field min 1
field max 124743
statistic Basic.rack[2].node[8].app 	"End-to-End Delay"
field count 124743
field mean 1.1866347036279e-005
field stddev 1.6125556721571e-005
field sum 1.4802437283466
field sqrsum 5.000219456288e-005
field min 4e-007
field max 0.000216287935
statistic Basic.rack[2].node[8].app 	hops
field count 124743
field mean 3.2471481365688
field stddev 0.82996937791704
field sum 405059
field sqrsum 1401215
field min 2
field max 4
statistic Basic.rack[2].node[9].app 	throughput
field count 125368
field mean 62684.5
field stddev 36190.768611162
field sum 7858630396
field sqrsum 6.5681646986728e+014
field min 1
field max 125368
statistic Basic.rack[2].node[9].app 	"End-to-End Delay"
field count 125368
field mean 1.2004873343688e-005
field stddev 1.6361718449936e-005
field sum 1.5050269613515
field sqrsum 5.1629134919075e-005
field min 4e-007
field max 0.000260541754
statistic Basic.rack[2].node[9].app 	hops
field count 125368
field mean 3.2527678514453
field stddev 0.82925829469644
field sum 407793
field sqrsum 1412667
field min 2
field max 4
statistic Basic.rack[2].eps.queue[0] 	dropsum
field count 0
field mean nan
field stddev nan
field sum 0
field sqrsum 0
field min nan
field max nan
statistic Basic.rack[2].eps.queue[1] 	dropsum
field count 0
field mean nan
field stddev nan
field sum 0
field sqrsum 0
field min nan
field max nan
statistic Basic.rack[2].eps.queue[2] 	dropsum
field count 0
field mean nan
field stddev nan
field sum 0
field sqrsum 0
field min nan
field max nan
statistic Basic.rack[2].eps.queue[3] 	dropsum
field count 0
field mean nan
field stddev nan
field sum 0
field sqrsum 0
field min nan
field max nan
statistic Basic.rack[3].node[0].app 	throughput
field count 124814
field mean 62407.5
field stddev 36030.842586595
field sum 7789329705
field sqrsum 6.4814752830982e+014
field min 1
field max 124814
statistic Basic.rack[3].node[0].app 	"End-to-End Delay"
field count 124814
field mean 1.1896162357521e-005
field stddev 1.6040914322938e-005
field sum 1.4848076084916
field sqrsum 4.9779261775436e-005
field min 4e-007
field max 0.000194102843
statistic Basic.rack[3].node[0].app 	hops
field count 124814
field mean 3.2517425929784
field stddev 0.82808321303632
field sum 405863
field sqrsum 1405349
field min 2
field max 4
statistic Basic.rack[3].node[1].app 	throughput
field count 124721
field mean 62361
field stddev 36003.995799078
field sum 7777726281
field sqrsum 6.4669979223716e+014
field min 1
field max 124721
statistic Basic.rack[3].node[1].app 	"End-to-End Delay"
field count 124721
field mean 1.1910693211589e-005
field stddev 1.6052173891404e-005
field sum 1.4855135680426
field sqrsum 4.9830383960332e-005
field min 4e-007
field max 0.00015772957
statistic Basic.rack[3].node[1].app 	hops
field count 124721
field mean 3.2530768675684
field stddev 0.828492963966
field sum 405727
field sqrsum 1405469
field min 2
field max 4
statistic Basic.rack[3].node[2].app 	throughput
field count 124792
field mean 62396.5
field stddev 36024.491733634
field sum 7786584028
field sqrsum 6.4780485820946e+014
field min 1
field max 124792
statistic Basic.rack[3].node[2].app 	"End-to-End Delay"
field count 124792
field mean 1.187920351523e-005
field stddev 1.6053251980275e-005
field sum 1.4824295650726
field sqrsum 4.9769584151345e-005
field min 4e-007
field max 0.000183177834
statistic Basic.rack[3].node[2].app 	hops
field count 124792
field mean 3.25
field stddev 0.8288888700549
field sum 405574
field sqrsum 1403854
field min 2
field max 4
statistic Basic.rack[3].node[3].app 	throughput
field count 125378
field mean 62689.5
field stddev 36193.655362508
field sum 7859884131
field sqrsum 6.5697365501239e+014
field min 1
field max 125378
statistic Basic.rack[3].node[3].app 	"End-to-End Delay"
field count 125378
field mean 1.1876306033447e-005
field stddev 1.6025078047363e-005
field sum 1.4890274978616
field sqrsum 4.9881351838496e-005
field min 4e-007
field max 0.00015976577
statistic Basic.rack[3].node[3].app 	hops
field count 125378
field mean 3.2474676578028
field stddev 0.82905102005832
field sum 407161
field sqrsum 1408417
field min 2
field max 4
statistic Basic.rack[3].node[4].app 	throughput
field count 125331
field mean 62666
field stddev 36180.087631182
field sum 7853992446
field sqrsum 6.5623510283057e+014
field min 1
field max 125331
statistic Basic.rack[3].node[4].app 	"End-to-End Delay"
field count 125331
field mean 1.1941202508179e-005
field stddev 1.6147928604378e-005
field sum 1.4966028515525
field sqrsum 5.055173684863e-005
field min 4e-007
field max 0.000176707672
statistic Basic.rack[3].node[4].app 	hops
field count 125331
field mean 3.2503770016995
field stddev 0.82880389690121
field sum 407373
field sqrsum 1410207
field min 2
field max 4
statistic Basic.rack[3].node[5].app 	throughput
field count 125496
field mean 62748.5
field stddev 36227.71902839
field sum 7874685756
field sqrsum 6.5883033398524e+014
field min 1
field max 125496
statistic Basic.rack[3].node[5].app 	"End-to-End Delay"
field count 125496
field mean 1.1882737822007e-005
field stddev 1.6054207797852e-005
field sum 1.4912360657106
field sqrsum 5.0064745807703e-005
field min 4e-007
field max 0.000171888477
statistic Basic.rack[3].node[5].app 	hops
field count 125496
field mean 3.2481274303563
field stddev 0.82988984788163
field sum 407627
field sqrsum 1410455
field min 2
field max 4
statistic Basic.rack[3].node[6].app 	throughput
field count 124897
field mean 62449
field stddev 36054.802622767
field sum 7799692753
field sqrsum 6.4944141707854e+014
field min 1
field max 124897
statistic Basic.rack[3].node[6].app 	"End-to-End Delay"
field count 124897
field mean 1.1892732100295e-005
field stddev 1.6025394413383e-005
field sum 1.4853665611305
field sqrsum 4.9740016265647e-005
field min 4e-007
field max 0.000177921288
statistic Basic.rack[3].node[6].app 	hops
field count 124897
field mean 3.2493734837506
field stddev 0.82932523236941
field sum 405837
field sqrsum 1404617
field min 2
field max 4
statistic Basic.rack[3].node[7].app 	throughput
field count 125185
field mean 62593
field stddev 36137.941061531
field sum 7835704705
field sqrsum 6.5394440756518e+014
field min 1
field max 125185
statistic Basic.rack[3].node[7].app 	"End-to-End Delay"
field count 125185
field mean 1.186038247769e-005
field stddev 1.6047774373349e-005
field sum 1.4847419804696
field sqrsum 4.9848376276762e-005
field min 4e-007
field max 0.000170342719
statistic Basic.rack[3].node[7].app 	hops
field count 125185
field mean 3.2503974118305
field stddev 0.82905523836483
field sum 406901
field sqrsum 1408633
field min 2
field max 4
statistic Basic.rack[3].node[8].app 	throughput
field count 125257
field mean 62629
field stddev 36158.725671222
field sum 7844720653
field sqrsum 6.5507339812876e+014
field min 1
field max 125257
statistic Basic.rack[3].node[8].app 	"End-to-End Delay"
field count 125257
field mean 1.186870752447e-005
field stddev 1.6026488426599e-005
field sum 1.4866386983926
field sqrsum 4.9816274489577e-005
field min 4e-007
field max 0.000174716611
statistic Basic.rack[3].node[8].app 	hops
field count 125257
field mean 3.2537343222335
field stddev 0.82857979885156
field sum 407553
field sqrsum 1412063
field min 2
field max 4
statistic Basic.rack[3].node[9].app 	throughput
field count 125038
field mean 62519.5
field stddev 36095.505816745
field sum 7817313241
field sqrsum 6.5164341445652e+014
field min 1
field max 125038
statistic Basic.rack[3].node[9].app 	"End-to-End Delay"
field count 125038
field mean 1.1803107064009e-005
field stddev 1.5964481421033e-005
field sum 1.4758369010696
field sqrsum 4.9286974325336e-005
field min 4e-007
field max 0.0001680753
statistic Basic.rack[3].node[9].app 	hops
field count 125038
field mean 3.2497480765847
field stddev 0.82965727290425
field sum 406342
field sqrsum 1406576
field min 2
field max 4
statistic Basic.rack[3].eps.queue[0] 	dropsum
field count 0
field mean nan
field stddev nan
field sum 0
field sqrsum 0
field min nan
field max nan
statistic Basic.rack[3].eps.queue[1] 	dropsum
field count 0
field mean nan
field stddev nan
field sum 0
field sqrsum 0
field min nan
field max nan
statistic Basic.rack[3].eps.queue[2] 	dropsum
field count 0
field mean nan
field stddev nan
field sum 0
field sqrsum 0
field min nan
field max nan
statistic Basic.rack[3].eps.queue[3] 	dropsum
field count 0
field mean nan
field stddev nan
field sum 0
field sqrsum 0
field min nan
field max nan
statistic Basic.rack[4].node[0].app 	throughput
field count 125021
field mean 62511
field stddev 36090.598339457
field sum 7815187731
field sqrsum 6.5137766194081e+014
field min 1
field max 125021
statistic Basic.rack[4].node[0].app 	"End-to-End Delay"
field count 125021
field mean 1.7587431746656e-005
field stddev 1.7473607504149e-005
field sum 2.1987983043987
field sqrsum 7.684319154359e-005
field min 4e-007
field max 0.000179989187
statistic Basic.rack[4].node[0].app 	hops
field count 125021
field mean 3.0016477231825
field stddev 0.70922831569502
field sum 375269
field sqrsum 1189311
field min 2
field max 4
statistic Basic.rack[4].node[1].app 	throughput
field count 125210
field mean 62605.5
field stddev 36145.157939896
field sum 7838834655
field sqrsum 6.5433627104658e+014
field min 1
field max 125210
statistic Basic.rack[4].node[1].app 	"End-to-End Delay"
field count 125210
field mean 1.7544007216002e-005
field stddev 1.7392389473712e-005
field sum 2.1966851435156
field sqrsum 7.6413782959007e-005
field min 4e-007
field max 0.000175470563
statistic Basic.rack[4].node[1].app 	hops
field count 125210
field mean 3.0000079865825
field stddev 0.70724512919584
field sum 375631
field sqrsum 1189525
field min 2
field max 4
statistic Basic.rack[4].node[2].app 	throughput
field count 125046
field mean 62523.5
field stddev 36097.815217822
field sum 7818313581
field sqrsum 6.5176849947101e+014
field min 1
field max 125046
statistic Basic.rack[4].node[2].app 	"End-to-End Delay"
field count 125046
field mean 1.7532970940451e-005
field stddev 1.7451343774691e-005
field sum 2.1924278842197
field sqrsum 7.6522154048844e-005
field min 4e-007
field max 0.000182139481
statistic Basic.rack[4].node[2].app 	hops
field count 125046
field mean 2.9964812948835
field stddev 0.70732135899902
field sum 374698
field sqrsum 1185336
field min 2
field max 4
statistic Basic.rack[4].node[3].app 	throughput
field count 124503
field mean 62252
field stddev 35941.064619735
field sum 7750560756
field sqrsum 6.4331462738976e+014
field min 1
field max 124503
statistic Basic.rack[4].node[3].app 	"End-to-End Delay"
field count 124503
field mean 1.7615361868506e-005
field stddev 1.7409860265864e-005
field sum 2.1931653987146
field sqrsum 7.637036103469e-005
field min 4e-007
field max 0.000181154265
statistic Basic.rack[4].node[3].app 	hops
field count 124503
field mean 3.0022248459876
field stddev 0.70801141935588
field sum 373786
field sqrsum 1184600
field min 2
field max 4
statistic Basic.rack[4].node[4].app 	throughput
field count 125350
field mean 62675.5
field stddev 36185.572458739
field sum 7856373925
field sqrsum 6.5653359979048e+014
field min 1
field max 125350
statistic Basic.rack[4].node[4].app 	"End-to-End Delay"
field count 125350
field mean 1.7499542070631e-005
field stddev 1.7294338029147e-005
field sum 2.1935675985537
field sqrsum 7.587757830959e-005
field min 4e-007
field max 0.000179138683
statistic Basic.rack[4].node[4].app 	hops
field count 125350
field mean 3.0021858795373
field stddev 0.70749535253783
field sum 376324
field sqrsum 1192538
field min 2
field max 4
statistic Basic.rack[4].node[5].app 	throughput
field count 124865
field mean 62433
field stddev 36045.56501846
field sum 7795696545
field sqrsum 6.4894236462646e+014
field min 1
field max 124865
statistic Basic.rack[4].node[5].app 	"End-to-End Delay"
field count 124865
field mean 1.7627330666125e-005
field stddev 1.7386286785027e-005
field sum 2.2010366436257
field sqrsum 7.6542661263174e-005
field min 4e-007
field max 0.000205394324
statistic Basic.rack[4].node[5].app 	hops
field count 124865
field mean 3.0024266207504
field stddev 0.70602014644757
field sum 374898
field sqrsum 1187844
field min 2
field max 4
statistic Basic.rack[4].node[6].app 	throughput
field count 124698
field mean 62349.5
field stddev 35997.356270982
field sum 7774857951
field sqrsum 6.4634208280185e+014
field min 1
field max 124698
statistic Basic.rack[4].node[6].app 	"End-to-End Delay"
field count 124698
field mean 1.7542089103367e-005
field stddev 1.7383254366842e-005
field sum 2.1874634270116
field sqrsum 7.6053310102472e-005
field min 4e-007
field max 0.000186619945
statistic Basic.rack[4].node[6].app 	hops
field count 124698
field mean 2.9981956406679
field stddev 0.70691448779238
field sum 373869
field sqrsum 1183247
field min 2
field max 4
statistic Basic.rack[4].node[7].app 	throughput
field count 125100
field mean 62550.5
field stddev 36113.40367509
field sum 7825067550
field sqrsum 6.5261324202585e+014
field min 1
field max 125100
statistic Basic.rack[4].node[7].app 	"End-to-End Delay"
field count 125100
field mean 1.7666001490701e-005
field stddev 1.7514125007287e-005
field sum 2.2100167864866
field sqrsum 7.7415599403808e-005
field min 4e-007
field max 0.000179302479
statistic Basic.rack[4].node[7].app 	hops
field count 125100
field mean 3.001726618705
field stddev 0.70614594232787
field sum 375516
field sqrsum 1189576
field min 2
field max 4
statistic Basic.rack[4].node[8].app 	throughput
field count 125253
field mean 62627
field stddev 36157.570970683
field sum 7844219631
field sqrsum 6.5501064236764e+014
field min 1
field max 125253
statistic Basic.rack[4].node[8].app 	"End-to-End Delay"
field count 125253
field mean 1.7573515773911e-005
field stddev 1.7409466574513e-005
field sum 2.2011355712296
field sqrsum 7.6644260043312e-005
field min 4e-007
field max 0.000189424682
statistic Basic.rack[4].node[8].app 	hops
field count 125253
field mean 2.9998562908673
field stddev 0.70834768181044
field sum 375741
field sqrsum 1190015
field min 2
field max 4
statistic Basic.rack[4].node[9].app 	throughput
field count 125086
field mean 62543.5
field stddev 36109.362223206
field sum 7823316241
field sqrsum 6.5239416465323e+014
field min 1
field max 125086
statistic Basic.rack[4].node[9].app 	"End-to-End Delay"
field count 125086
field mean 1.7580820833512e-005
field stddev 1.7379729570204e-005
field sum 2.1991145547806
field sqrsum 7.6444788646638e-005
field min 4e-007
field max 0.000158887269
statistic Basic.rack[4].node[9].app 	hops
field count 125086
field mean 2.9986249460371
field stddev 0.70785972018825
field sum 375086
field sqrsum 1187418
field min 2
field max 4
statistic Basic.rack[4].eps.queue[0] 	dropsum
field count 0
field mean nan
field stddev nan
field sum 0
field sqrsum 0
field min nan
field max nan
statistic Basic.rack[4].eps.queue[1] 	dropsum
field count 0
field mean nan
field stddev nan
field sum 0
field sqrsum 0
field min nan
field max nan
statistic Basic.rack[4].eps.queue[2] 	dropsum
field count 0
field mean nan
field stddev nan
field sum 0
field sqrsum 0
field min nan
field max nan
statistic Basic.rack[4].eps.queue[3] 	dropsum
field count 0
field mean nan
field stddev nan
field sum 0
field sqrsum 0
field min nan
field max nan
statistic Basic.rack[5].node[0].app 	throughput
field count 125140
field mean 62570.5
field stddev 36124.950680474
field sum 7830072370
field sqrsum 6.5323944761199e+014
field min 1
field max 125140
statistic Basic.rack[5].node[0].app 	"End-to-End Delay"
field count 125140
field mean 1.7572372955823e-005
field stddev 1.7434211292843e-005
field sum 2.1990067516916
field sqrsum 7.6677981488087e-005
field min 4e-007
field max 0.000185004645
statistic Basic.rack[5].node[0].app 	hops
field count 125140
field mean 2.9990250918971
field stddev 0.70840736959482
field sum 375298
field sqrsum 1188328
field min 2
field max 4
statistic Basic.rack[5].node[1].app 	throughput
field count 124716
field mean 62358.5
field stddev 36002.552423405
field sum 7777102686
field sqrsum 6.4662201809235e+014
field min 1
field max 124716
statistic Basic.rack[5].node[1].app 	"End-to-End Delay"
field count 124716
field mean 1.7597225962857e-005
field stddev 1.7438449823732e-005
field sum 2.1946556331837
field sqrsum 7.654562425295e-005
field min 4e-007
field max 0.000191691006
statistic Basic.rack[5].node[1].app 	hops
field count 124716
field mean 3.0015715706084
field stddev 0.70652931613293
field sum 374344
field sqrsum 1185876
field min 2
field max 4
statistic Basic.rack[5].node[2].app 	throughput
field count 124482
field mean 62241.5
field stddev 35935.002441909
field sum 7747946403
field sqrsum 6.4298915874096e+014
field min 1
field max 124482
statistic Basic.rack[5].node[2].app 	"End-to-End Delay"
field count 124482
field mean 1.7625340913511e-005
field stddev 1.741910022137e-005
field sum 2.1940376875956
field sqrsum 7.644131618397e-005
field min 4e-007
field max 0.000166793053
statistic Basic.rack[5].node[2].app 	hops
field count 124482
field mean 3.0020565222281
field stddev 0.70728270256575
field sum 373702
field sqrsum 1184146
field min 2
field max 4
statistic Basic.rack[5].node[3].app 	throughput
field count 125403
field mean 62702
field stddev 36200.872240873
field sum 7863018906
field sqrsum 6.5736672758571e+014
field min 1
field max 125403
statistic Basic.rack[5].node[3].app 	"End-to-End Delay"
field count 125403
field mean 1.7602744164874e-005
field stddev 1.7448969982239e-005
field sum 2.2074369265077
field sqrsum 7.7037662212025e-005
field min 4e-007
field max 0.00016680786
statistic Basic.rack[5].node[3].app 	hops
field count 125403
field mean 3.001818138322
field stddev 0.70691834086334
field sum 376437
field sqrsum 1192663
field min 2
field max 4
statistic Basic.rack[5].node[4].app 	throughput
field count 125553
field mean 62777
field stddev 36244.173511062
field sum 7881840681
field sqrsum 6.5972845596129e+014
field min 1
field max 125553
statistic Basic.rack[5].node[4].app 	"End-to-End Delay"
field count 125553
field mean 1.74810769758e-005
field stddev 1.737576155908e-005
field sum 2.1948016575426
field sqrsum 7.6273791175414e-005
field min 4e-007
field max 0.000179025572
statistic Basic.rack[5].node[4].app 	hops
field count 125553
field mean 2.9974512755569
field stddev 0.70745128683604
field sum 376339
field sqrsum 1190895
field min 2
field max 4
statistic Basic.rack[5].node[5].app 	throughput
field count 124861
field mean 62431
field stddev 36044.410317921
field sum 7795197091
field sqrsum 6.4888000105193e+014
field min 1
field max 124861
statistic Basic.rack[5].node[5].app 	"End-to-End Delay"
field count 124861
field mean 1.756047326619e-005
field stddev 1.745277260232e-005
field sum 2.1926182524897
field sqrsum 7.6535679246331e-005
field min 4e-007
field max 0.000202709464
statistic Basic.rack[5].node[5].app 	hops
field count 124861
field mean 2.9990549491034
field stddev 0.70727602530628
field sum 374465
field sqrsum 1185501
field min 2
field max 4
statistic Basic.rack[5].node[6].app 	throughput
field count 125470
field mean 62735.5
field stddev 36220.213474891
field sum 7871423185
field sqrsum 6.584209351557e+014
field min 1
field max 125470
statistic Basic.rack[5].node[6].app 	"End-to-End Delay"
field count 125470
field mean 1.7438178127693e-005
field stddev 1.7277754773164e-005
field sum 2.1879682096817
field sqrsum 7.5609286888248e-005
field min 4e-007
field max 0.000176850775
statistic Basic.rack[5].node[6].app 	hops
field count 125470
field mean 2.9981350123536
field stddev 0.70694368520532
field sum 376176
field sqrsum 1190532
field min 2
field max 4
statistic Basic.rack[5].node[7].app 	throughput
field count 124488
field mean 62244.5
field stddev 35936.734492717
field sum 7748693316
field sqrsum 6.4308213857924e+014
field min 1
field max 124488
statistic Basic.rack[5].node[7].app 	"End-to-End Delay"
field count 124488
field mean 1.7461200096874e-005
field stddev 1.7265397331698e-005
field sum 2.1737098776597
field sqrsum 7.5064404060247e-005
field min 4e-007
field max 0.000178058633
statistic Basic.rack[5].node[7].app 	hops
field count 124488
field mean 2.9976463594885
field stddev 0.70763376316721
field sum 373171
field sqrsum 1180971
field min 2
field max 4
statistic Basic.rack[5].node[8].app 	throughput
field count 125245
field mean 62623
field stddev 36155.261569607
field sum 7843217635
field sqrsum 6.548851428696e+014
field min 1
field max 125245
statistic Basic.rack[5].node[8].app 	"End-to-End Delay"
field count 125245
field mean 1.7599611616692e-005
field stddev 1.7464312634784e-005
field sum 2.2042633569326
field sqrsum 7.6993876499261e-005
field min 4e-007
field max 0.000173382013
statistic Basic.rack[5].node[8].app 	hops
field count 125245
field mean 3.0027306479301
field stddev 0.70931123913003
field sum 376077
field sqrsum 1192271
field min 2
field max 4
statistic Basic.rack[5].node[9].app 	throughput
field count 124900
field mean 62450.5
field stddev 36055.668648171
field sum 7800067450
field sqrsum 6.4948821635915e+014
field min 1
field max 124900
statistic Basic.rack[5].node[9].app 	"End-to-End Delay"
field count 124900
field mean 1.7572759511847e-005
field stddev 1.7399891212699e-005
field sum 2.1948376630297
field sqrsum 7.6383302819048e-005
field min 4e-007
field max 0.000195215096
statistic Basic.rack[5].node[9].app 	hops
field count 124900
field mean 3.0017373899119
field stddev 0.70729427975294
field sum 374917
field sqrsum 1187885
field min 2
field max 4
statistic Basic.rack[5].eps.queue[0] 	dropsum
field count 0
field mean nan
field stddev nan
field sum 0
field sqrsum 0
field min nan
field max nan
statistic Basic.rack[5].eps.queue[1] 	dropsum
field count 0
field mean nan
field stddev nan
field sum 0
field sqrsum 0
field min nan
field max nan
statistic Basic.rack[5].eps.queue[2] 	dropsum
field count 0
field mean nan
field stddev nan
field sum 0
field sqrsum 0
field min nan
field max nan
statistic Basic.rack[5].eps.queue[3] 	dropsum
field count 0
field mean nan
field stddev nan
field sum 0
field sqrsum 0
field min nan
field max nan
statistic Basic.rack[6].node[0].app 	throughput
field count 125353
field mean 62677
field stddev 36186.438484143
field sum 7856749981
field sqrsum 6.5658073916219e+014
field min 1
field max 125353
statistic Basic.rack[6].node[0].app 	"End-to-End Delay"
field count 125353
field mean 1.1909411877255e-005
field stddev 1.6108425402208e-005
field sum 1.4928805070496
field sqrsum 5.0305837401157e-005
field min 4e-007
field max 0.000181281886
statistic Basic.rack[6].node[0].app 	hops
field count 125353
field mean 3.2495034023916
field stddev 0.82925736669943
field sum 407335
field sqrsum 1409837
field min 2
field max 4
statistic Basic.rack[6].node[1].app 	throughput
field count 125008
field mean 62504.5
field stddev 36086.845562707
field sum 7813562536
field sqrsum 6.511744881877e+014
field min 1
field max 125008
statistic Basic.rack[6].node[1].app 	"End-to-End Delay"
field count 125008
field mean 1.1869057304401e-005
field stddev 1.607641870219e-005
field sum 1.4837271155086
field sqrsum 4.9918656102749e-005
field min 4e-007
field max 0.000208690873
statistic Basic.rack[6].node[1].app 	hops
field count 125008
field mean 3.2506639575067
field stddev 0.82894455712297
field sum 406359
field sqrsum 1406835
field min 2
field max 4
statistic Basic.rack[6].node[2].app 	throughput
field count 125042
field mean 62521.5
field stddev 36096.660517283
field sum 7817813403
field sqrsum 6.5170595496308e+014
field min 1
field max 125042
statistic Basic.rack[6].node[2].app 	"End-to-End Delay"
field count 125042
field mean 1.1923052454676e-005
field stddev 1.6080689813867e-005
field sum 1.4908823250375
field sqrsum 5.0110043408377e-005
field min 4e-007
field max 0.000195519037
statistic Basic.rack[6].node[2].app 	hops
field count 125042
field mean 3.255554133811
field stddev 0.82776168014087
field sum 407081
field sqrsum 1410951
field min 2
field max 4
statistic Basic.rack[6].node[3].app 	throughput
field count 125452
field mean 62726.5
field stddev 36215.017322468
field sum 7869164878
field sqrsum 6.5813760457153e+014
field min 1
field max 125452
statistic Basic.rack[6].node[3].app 	"End-to-End Delay"
field count 125452
field mean 1.1846215326026e-005
field stddev 1.6088052696705e-005
field sum 1.4861314050806
field sqrsum 5.0074942847094e-005
field min 4e-007
field max 0.000168522263
statistic Basic.rack[6].node[3].app 	hops
field count 125452
field mean 3.2490434588528
field stddev 0.8308876046525
field sum 407599
field sqrsum 1410915
field min 2
field max 4
statistic Basic.rack[6].node[4].app 	throughput
field count 125227
field mean 62614
field stddev 36150.065417184
field sum 7840963378
field sqrsum 6.5460282761233e+014
field min 1
field max 125227
statistic Basic.rack[6].node[4].app 	"End-to-End Delay"
field count 125227
field mean 1.189612410063e-005
field stddev 1.6103927266872e-005
field sum 1.4897159327496
field sqrsum 5.0197514830754e-005
field min 4e-007
field max 0.00018534433
statistic Basic.rack[6].node[4].app 	hops
field count 125227
field mean 3.2469355650139
field stddev 0.83133059866961
field sum 406604
field sqrsum 1406762
field min 2
field max 4
statistic Basic.rack[6].node[5].app 	throughput
field count 125426
field mean 62713.5
field stddev 36207.511768969
field sum 7865903451
field sqrsum 6.577284927979e+014
field min 1
field max 125426
statistic Basic.rack[6].node[5].app 	"End-to-End Delay"
field count 125426
field mean 1.1861975203391e-005
field stddev 1.6048010199628e-005
field sum 1.4878001018605
field sqrsum 4.9950030755124e-005
field min 4e-007
field max 0.00021802891
statistic Basic.rack[6].node[5].app 	hops
field count 125426
field mean 3.2487123881811
field stddev 0.82976526864047
field sum 407473
field sqrsum 1410119
field min 2
field max 4
statistic Basic.rack[6].node[6].app 	throughput
field count 124997
field mean 62499
field stddev 36083.670136226
field sum 7812187503
field sqrsum 6.510026049375e+014
field min 1
field max 124997
statistic Basic.rack[6].node[6].app 	"End-to-End Delay"
field count 124997
field mean 1.1949518983764e-005
field stddev 1.6124822670386e-005
field sum 1.4936540244136
field sqrsum 5.0348645349206e-005
field min 4e-007
field max 0.000209855491
statistic Basic.rack[6].node[6].app 	hops
field count 124997
field mean 3.255238125715
field stddev 0.8282493674021
field sum 406895
field sqrsum 1410287
field min 2
field max 4
statistic Basic.rack[6].node[7].app 	throughput
field count 124875
field mean 62438
field stddev 36048.451769806
field sum 7796945250
field sqrsum 6.4909829104425e+014
field min 1
field max 124875
statistic Basic.rack[6].node[7].app 	"End-to-End Delay"
field count 124875
field mean 1.1987082048797e-005
field stddev 1.6192930501026e-005
field sum 1.4968868708436
field sqrsum 5.0686641929176e-005
field min 4e-007
field max 0.000222988703
statistic Basic.rack[6].node[7].app 	hops
field count 124875
field mean 3.2527247247247
field stddev 0.82876198301756
field sum 406184
field sqrsum 1406974
field min 2
field max 4
statistic Basic.rack[6].node[8].app 	throughput
field count 124845
field mean 62423
field stddev 36039.791515768
field sum 7793199435
field sqrsum 6.486305867082e+014
field min 1
field max 124845
statistic Basic.rack[6].node[8].app 	"End-to-End Delay"
field count 124845
field mean 1.1922220484902e-005
field stddev 1.6083212087841e-005
field sum 1.4884296164376
field sqrsum 5.0038747471309e-005
field min 4e-007
field max 0.000188403983
statistic Basic.rack[6].node[8].app 	hops
field count 124845
field mean 3.2524650566703
field stddev 0.8283893074084
field sum 406054
field sqrsum 1406348
field min 2
field max 4
statistic Basic.rack[6].node[9].app 	throughput
field count 124841
field mean 62421
field stddev 36038.636815229
field sum 7792700061
field sqrsum 6.4856824311022e+014
field min 1
field max 124841
statistic Basic.rack[6].node[9].app 	"End-to-End Delay"
field count 124841
field mean 1.1959683861092e-005
field stddev 1.6063187335416e-005
field sum 1.4930588929026
field sqrsum 5.0068476608711e-005
field min 4e-007
field max 0.000215175555
statistic Basic.rack[6].node[9].app 	hops
field count 124841
field mean 3.249341161958
field stddev 0.82871655801938
field sum 405651
field sqrsum 1403835
field min 2
field max 4
statistic Basic.rack[6].eps.queue[0] 	dropsum
field count 0
field mean nan
field stddev nan
field sum 0
field sqrsum 0
field min nan
field max nan
statistic Basic.rack[6].eps.queue[1] 	dropsum
field count 0
field mean nan
field stddev nan
field sum 0
field sqrsum 0
field min nan
field max nan
statistic Basic.rack[6].eps.queue[2] 	dropsum
field count 0
field mean nan
field stddev nan
field sum 0
field sqrsum 0
field min nan
field max nan
statistic Basic.rack[6].eps.queue[3] 	dropsum
field count 0
field mean nan
field stddev nan
field sum 0
field sqrsum 0
field min nan
field max nan
statistic Basic.rack[7].node[0].app 	throughput
field count 124687
field mean 62344
field stddev 35994.180844501
field sum 7773486328
field sqrsum 6.46171051015e+014
field min 1
field max 124687
statistic Basic.rack[7].node[0].app 	"End-to-End Delay"
field count 124687
field mean 1.202008038974e-005
field stddev 1.6312350427552e-005
field sum 1.4987477635555
field sqrsum 5.1193112528978e-005
field min 4e-007
field max 0.000213831856
statistic Basic.rack[7].node[0].app 	hops
field count 124687
field mean 3.2537874838596
field stddev 0.82784705212325
field sum 405705
field sqrsum 1405529
field min 2
field max 4
statistic Basic.rack[7].node[1].app 	throughput
field count 125421
field mean 62711
field stddev 36206.068393296
field sum 7865276331
field sqrsum 6.5764983689901e+014
field min 1
field max 125421
statistic Basic.rack[7].node[1].app 	"End-to-End Delay"
field count 125421
field mean 1.1906857512351e-005
field stddev 1.6138829471449e-005
field sum 1.4933699760565
field sqrsum 5.0448464569711e-005
field min 4e-007
field max 0.000190496136
statistic Basic.rack[7].node[1].app 	hops
field count 125421
field mean 3.249431913316
field stddev 0.82883169819005
field sum 407547
field sqrsum 1410455
field min 2
field max 4
statistic Basic.rack[7].node[2].app 	throughput
field count 124959
field mean 62480
field stddev 36072.700481112
field sum 7807438320
field sqrsum 6.5040905916536e+014
field min 1
field max 124959
statistic Basic.rack[7].node[2].app 	"End-to-End Delay"
field count 124959
field mean 1.1914721731909e-005
field stddev 1.6149737776537e-005
field sum 1.4888517128976
field sqrsum 5.0330053451345e-005
field min 4e-007
field max 0.000161987854
statistic Basic.rack[7].node[2].app 	hops
field count 124959
field mean 3.2476092158228
field stddev 0.82895879031769
field sum 405818
field sqrsum 1403806
field min 2
field max 4
statistic Basic.rack[7].node[3].app 	throughput
field count 125061
field mean 62531
field stddev 36102.145344841
field sum 7820189391
field sqrsum 6.5200307701503e+014
field min 1
field max 125061
statistic Basic.rack[7].node[3].app 	"End-to-End Delay"
field count 125061
field mean 1.2039715738684e-005
field stddev 1.6277164681718e-005
field sum 1.5056988899955
field sqrsum 5.1262344648473e-005
field min 4e-007
field max 0.000192223644
statistic Basic.rack[7].node[3].app 	hops
field count 125061
field mean 3.2553793748651
field stddev 0.82683335356956
field sum 407121
field sqrsum 1410831
field min 2
field max 4
statistic Basic.rack[7].node[4].app 	throughput
field count 125503
field mean 62752
field stddev 36229.739754333
field sum 7875564256
field sqrsum 6.5894058573526e+014
field min 1
field max 125503
statistic Basic.rack[7].node[4].app 	"End-to-End Delay"
field count 125503
field mean 1.2020673321622e-005
field stddev 1.6324534552688e-005
field sum 1.5086305638835
field sqrsum 5.1579836911735e-005
field min 4e-007
field max 0.00022369492
statistic Basic.rack[7].node[4].app 	hops
field count 125503
field mean 3.2478665848625
field stddev 0.82997618435166
field sum 407617
field sqrsum 1410339
field min 2
field max 4
statistic Basic.rack[7].node[5].app 	throughput
field count 125461
field mean 62731
field stddev 36217.61539868
field sum 7870293991
field sqrsum 6.5827925970123e+014
field min 1
field max 125461
statistic Basic.rack[7].node[5].app 	"End-to-End Delay"
field count 125461
field mean 1.2030434036071e-005
field stddev 1.6348192275395e-005
field sum 1.5093502845995
field sqrsum 5.1689004030069e-005
field min 4e-007
field max 0.000186867638
statistic Basic.rack[7].node[5].app 	hops
field count 125461
field mean 3.2526203362001
field stddev 0.8287990032912
field sum 408077
field sqrsum 1413499
field min 2
field max 4
statistic Basic.rack[7].node[6].app 	throughput
field count 125271
field mean 62636
field stddev 36162.767123106
field sum 7846474356
field sqrsum 6.5529307485844e+014
field min 1
field max 125271
statistic Basic.rack[7].node[6].app 	"End-to-End Delay"
field count 125271
field mean 1.1960057981053e-005
field stddev 1.6273844548387e-005
field sum 1.4982484233445
field sqrsum 5.1095396325781e-005
field min 4e-007
field max 0.000180136725
statistic Basic.rack[7].node[6].app 	hops
field count 125271
field mean 3.2519018767312
field stddev 0.82857766478366
field sum 407369
field sqrsum 1410727
field min 2
field max 4
statistic Basic.rack[7].node[7].app 	throughput
field count 125033
field mean 62517
field stddev 36094.062441072
field sum 7816688061
field sqrsum 6.5156524445003e+014
field min 1
field max 125033
statistic Basic.rack[7].node[7].app 	"End-to-End Delay"
field count 125033
field mean 1.1999817788724e-005
field stddev 1.6205295952437e-005
field sum 1.5003732175775
field sqrsum 5.0839060911013e-005
field min 4e-007
field max 0.000197710859
statistic Basic.rack[7].node[7].app 	hops
field count 125033
field mean 3.2505578527269
field stddev 0.82911290370924
field sum 406427
field sqrsum 1407065
field min 2
field max 4
statistic Basic.rack[7].node[8].app 	throughput
field count 125119
field mean 62560
field stddev 36118.888502647
field sum 7827444640
field sqrsum 6.5291063975632e+014
field min 1
field max 125119
statistic Basic.rack[7].node[8].app 	"End-to-End Delay"
field count 125119
field mean 1.1865698280873e-005
field stddev 1.6140458090295e-005
field sum 1.4846243032046
field sqrsum 5.0211143160558e-005
field min 4e-007
field max 0.000160220595
statistic Basic.rack[7].node[8].app 	hops
field count 125119
field mean 3.2507692676572
field stddev 0.8298366357525
field sum 406733
field sqrsum 1408355
field min 2
field max 4
statistic Basic.rack[7].node[9].app 	throughput
field count 124997
field mean 62499
field stddev 36083.670136226
field sum 7812187503
field sqrsum 6.510026049375e+014
field min 1
field max 124997
statistic Basic.rack[7].node[9].app 	"End-to-End Delay"
field count 124997
field mean 1.1917196715086e-005
field stddev 1.6208050841077e-005
field sum 1.4896138377956
field sqrsum 5.0588584339243e-005
field min 4e-007
field max 0.000180266911
statistic Basic.rack[7].node[9].app 	hops
field count 124997
field mean 3.246549917198
field stddev 0.83070372541122
field sum 405809
field sqrsum 1403735
field min 2
field max 4
statistic Basic.rack[7].eps.queue[0] 	dropsum
field count 0
field mean nan
field stddev nan
field sum 0
field sqrsum 0
field min nan
field max nan
statistic Basic.rack[7].eps.queue[1] 	dropsum
field count 0
field mean nan
field stddev nan
field sum 0
field sqrsum 0
field min nan
field max nan
statistic Basic.rack[7].eps.queue[2] 	dropsum
field count 0
field mean nan
field stddev nan
field sum 0
field sqrsum 0
field min nan
field max nan
statistic Basic.rack[7].eps.queue[3] 	dropsum
field count 0
field mean nan
field stddev nan
field sum 0
field sqrsum 0
field min nan
field max nan
statistic Basic.rack[8].node[0].app 	throughput
field count 124366
field mean 62183.5
field stddev 35901.516126296
field sum 7733513161
field sqrsum 6.4119330969167e+014
field min 1
field max 124366
statistic Basic.rack[8].node[0].app 	"End-to-End Delay"
field count 124366
field mean 1.7704772932904e-005
field stddev 1.765022796012e-005
field sum 2.2018717905736
field sqrsum 7.7727136562627e-005
field min 4e-007
field max 0.000224282296
statistic Basic.rack[8].node[0].app 	hops
field count 124366
field mean 3.0022835823296
field stddev 0.70690690757049
field sum 373382
field sqrsum 1183146
field min 2
field max 4
statistic Basic.rack[8].node[1].app 	throughput
field count 124924
field mean 62462.5
field stddev 36062.596851401
field sum 7803065350
field sqrsum 6.4986269154405e+014
field min 1
field max 124924
statistic Basic.rack[8].node[1].app 	"End-to-End Delay"
field count 124924
field mean 1.7720490362705e-005
field stddev 1.7655864240736e-005
field sum 2.2137145380706
field sqrsum 7.8170296723835e-005
field min 4e-007
field max 0.000204660907
statistic Basic.rack[8].node[1].app 	hops
field count 124924
field mean 3.0023374211521
field stddev 0.70631285457571
field sum 375064
field sqrsum 1188390
field min 2
field max 4
statistic Basic.rack[8].node[2].app 	throughput
field count 125521
field mean 62761
field stddev 36234.935906755
field sum 7877823481
field sqrsum 6.5922414671356e+014
field min 1
field max 125521
statistic Basic.rack[8].node[2].app 	"End-to-End Delay"
field count 125521
field mean 1.7673984014146e-005
field stddev 1.7608052125842e-005
field sum 2.2184561474396
field sqrsum 7.8125618564056e-005
field min 4e-007
field max 0.000180918493
statistic Basic.rack[8].node[2].app 	hops
field count 125521
field mean 2.9989404163447
field stddev 0.70695386844617
field sum 376430
field sqrsum 1191624
field min 2
field max 4
statistic Basic.rack[8].node[3].app 	throughput
field count 125907
field mean 62954
field stddev 36346.36450871
field sum 7926349278
field sqrsum 6.6532454781319e+014
field min 1
field max 125907
statistic Basic.rack[8].node[3].app 	"End-to-End Delay"
field count 125907
field mean 1.7735638954995e-005
field stddev 1.7602297484565e-005
field sum 2.2330410939066
field sqrsum 7.8615236039407e-005
field min 4e-007
field max 0.00019614
statistic Basic.rack[8].node[3].app 	hops
field count 125907
field mean 3.0050434050529
field stddev 0.70788585900841
field sum 378356
field sqrsum 1200068
field min 2
field max 4
statistic Basic.rack[8].node[4].app 	throughput
field count 124624
field mean 62312.5
field stddev 35975.994311022
field sum 7765633000
field sqrsum 6.45192086539e+014
field min 1
field max 124624
statistic Basic.rack[8].node[4].app 	"End-to-End Delay"
field count 124624
field mean 1.7629500093406e-005
field stddev 1.7572670722559e-005
field sum 2.1970588196407
field sqrsum 7.7216476075376e-005
field min 4e-007
field max 0.000194960499
statistic Basic.rack[8].node[4].app 	hops
field count 124624
field mean 3.0000080241366
field stddev 0.70599096626022
field sum 373873
field sqrsum 1183737
field min 2
field max 4
statistic Basic.rack[8].node[5].app 	throughput
field count 124272
field mean 62136.5
field stddev 35874.380663644
field sum 7721827128
field sqrsum 6.3974050784292e+014
field min 1
field max 124272
statistic Basic.rack[8].node[5].app 	"End-to-End Delay"
field count 124272
field mean 1.7619901454967e-005
field stddev 1.7562350159898e-005
field sum 2.1896603936116
field sqrsum 7.691126829929e-005
field min 4e-007
field max 0.000201450896
statistic Basic.rack[8].node[5].app 	hops
field count 124272
field mean 3.0000724217845
field stddev 0.70628408832018
field sum 372825
field sqrsum 1180493
field min 2
field max 4
statistic Basic.rack[8].node[6].app 	throughput
field count 125108
field mean 62554.5
field stddev 36115.713076167
field sum 7826068386
field sqrsum 6.5273845111325e+014
field min 1
field max 125108
statistic Basic.rack[8].node[6].app 	"End-to-End Delay"
field count 125108
field mean 1.7599930935357e-005
field stddev 1.7509976450376e-005
field sum 2.2018921594606
field sqrsum 7.7110865467657e-005
field min 4e-007
field max 0.000184928401
statistic Basic.rack[8].node[6].app 	hops
field count 125108
field mean 2.9976260510919
field stddev 0.70493757272632
field sum 375027
field sqrsum 1186361
field min 2
field max 4
statistic Basic.rack[8].node[7].app 	throughput
field count 125051
field mean 62526
field stddev 36099.258593495
field sum 7818938826
field sqrsum 6.5184668573303e+014
field min 1
field max 125051
statistic Basic.rack[8].node[7].app 	"End-to-End Delay"
field count 125051
field mean 1.7620671394428e-005
field stddev 1.7649561277413e-005
field sum 2.2034825785447
field sqrsum 7.7780794451192e-005
field min 4e-007
field max 0.000208090262
statistic Basic.rack[8].node[7].app 	hops
field count 125051
field mean 2.9981927373632
field stddev 0.70606891954079
field sum 374927
field sqrsum 1186445
field min 2
field max 4
statistic Basic.rack[8].node[8].app 	throughput
field count 125286
field mean 62643.5
field stddev 36167.097250125
field sum 7848353541
field sqrsum 6.5552849727633e+014
field min 1
field max 125286
statistic Basic.rack[8].node[8].app 	"End-to-End Delay"
field count 125286
field mean 1.7616462457894e-005
field stddev 1.7570708154844e-005
field sum 2.2070961154996
field sqrsum 7.7560436981242e-005
field min 4e-007
field max 0.00021582902
statistic Basic.rack[8].node[8].app 	hops
field count 125286
field mean 2.9998643104577
field stddev 0.70642069102402
field sum 375841
field sqrsum 1189993
field min 2
field max 4
statistic Basic.rack[8].node[9].app 	throughput
field count 124192
field mean 62096.5
field stddev 35851.286652876
field sum 7711888528
field sqrsum 6.3850581067576e+014
field min 1
field max 124192
statistic Basic.rack[8].node[9].app 	"End-to-End Delay"
field count 124192
field mean 1.7700420632276e-005
field stddev 1.7682018783993e-005
field sum 2.1982506391636
field sqrsum 7.7738747588336e-005
field min 4e-007
field max 0.000208016744
statistic Basic.rack[8].node[9].app 	hops
field count 124192
field mean 3.0000563643391
field stddev 0.70729749230279
field sum 372583
field sqrsum 1179899
field min 2
field max 4
statistic Basic.rack[8].eps.queue[0] 	dropsum
field count 0
field mean nan
field stddev nan
field sum 0
field sqrsum 0
field min nan
field max nan
statistic Basic.rack[8].eps.queue[1] 	dropsum
field count 0
field mean nan
field stddev nan
field sum 0
field sqrsum 0
field min nan
field max nan
statistic Basic.rack[8].eps.queue[2] 	dropsum
field count 0
field mean nan
field stddev nan
field sum 0
field sqrsum 0
field min nan
field max nan
statistic Basic.rack[8].eps.queue[3] 	dropsum
field count 0
field mean nan
field stddev nan
field sum 0
field sqrsum 0
field min nan
field max nan
statistic Basic.rack[9].node[0].app 	throughput
field count 124633
field mean 62317
field stddev 35978.592387233
field sum 7766754661
field sqrsum 6.4533187802783e+014
field min 1
field max 124633
statistic Basic.rack[9].node[0].app 	"End-to-End Delay"
field count 124633
field mean 1.7645604367942e-005
field stddev 1.7669009102696e-005
field sum 2.1992246091897
field sqrsum 7.7715995355072e-005
field min 4e-007
field max 0.000211881683
statistic Basic.rack[9].node[0].app 	hops
field count 124633
field mean 2.9999839528857
field stddev 0.70737905932851
field sum 373897
field sqrsum 1184049
field min 2
field max 4
statistic Basic.rack[9].node[1].app 	throughput
field count 125487
field mean 62744
field stddev 36225.120952179
field sum 7873556328
field sqrsum 6.586885998066e+014
field min 1
field max 125487
statistic Basic.rack[9].node[1].app 	"End-to-End Delay"
field count 125487
field mean 1.7649666176143e-005
field stddev 1.7780325930721e-005
field sum 2.2148036594456
field sqrsum 7.8761688045488e-005
field min 4e-007
field max 0.000233334233
statistic Basic.rack[9].node[1].app 	hops
field count 125487
field mean 2.9999760931411
field stddev 0.70794026150878
field sum 376458
field sqrsum 1192256
field min 2
field max 4
statistic Basic.rack[9].node[2].app 	throughput
field count 125347
field mean 62674
field stddev 36184.706433335
field sum 7855997878
field sqrsum 6.5648646267507e+014
field min 1
field max 125347
statistic Basic.rack[9].node[2].app 	"End-to-End Delay"
field count 125347
field mean 1.7696103213468e-005
field stddev 1.7925533968582e-005
field sum 2.2181534494986
field sqrsum 7.9529446762736e-005
field min 4e-007
field max 0.00025095881
statistic Basic.rack[9].node[2].app 	hops
field count 125347
field mean 2.9989469233408
field stddev 0.70723573376533
field sum 375909
field sqrsum 1190027
field min 2
field max 4
statistic Basic.rack[9].node[3].app 	throughput
field count 124913
field mean 62457
field stddev 36059.42142492
field sum 7801691241
field sqrsum 6.4969103922177e+014
field min 1
field max 124913
statistic Basic.rack[9].node[3].app 	"End-to-End Delay"
field count 124913
field mean 1.7723900469492e-005
field stddev 1.7878370007912e-005
field sum 2.2139455793456
field sqrsum 7.9166137382625e-005
field min 4e-007
field max 0.00023859078
statistic Basic.rack[9].node[3].app 	hops
field count 124913
field mean 3.0021775155508
field stddev 0.70867540184988
field sum 375011
field sqrsum 1188583
field min 2
field max 4
statistic Basic.rack[9].node[4].app 	throughput
field count 124556
field mean 62278.5
field stddev 35956.364401869
field sum 7757160846
field sqrsum 6.4413653660987e+014
field min 1
field max 124556
statistic Basic.rack[9].node[4].app 	"End-to-End Delay"
field count 124556
field mean 1.7778578605556e-005
field stddev 1.7859858955293e-005
field sum 2.2144286367936
field sqrsum 7.9099270143451e-005
field min 4e-007
field max 0.000231156785
statistic Basic.rack[9].node[4].app 	hops
field count 124556
field mean 3.0043434278557
field stddev 0.70632944879672
field sum 374209
field sqrsum 1186393
field min 2
field max 4
statistic Basic.rack[9].node[5].app 	throughput
field count 125319
field mean 62660
field stddev 36176.623529567
field sum 7852488540
field sqrsum 6.5604662505902e+014
field min 1
field max 125319
statistic Basic.rack[9].node[5].app 	"End-to-End Delay"
field count 125319
field mean 1.7651554749707e-005
field stddev 1.7790150526137e-005
field sum 2.2120751896786
field sqrsum 7.8708391935831e-005
field min 4e-007
field max 0.000234699094
statistic Basic.rack[9].node[5].app 	hops
field count 125319
field mean 2.9975981295733
field stddev 0.70483075395125
field sum 375656
field sqrsum 1188322
field min 2
field max 4
statistic Basic.rack[9].node[6].app 	throughput
field count 125241
field mean 62621
field stddev 36154.106869068
field sum 7842716661
field sqrsum 6.5482239913242e+014
field min 1
field max 125241
statistic Basic.rack[9].node[6].app 	"End-to-End Delay"
field count 125241
field mean 1.7811717647317e-005
field stddev 1.7964067241015e-005
field sum 2.2307573298676
field sqrsum 8.0149533530089e-005
field min 4e-007
field max 0.00021160588
statistic Basic.rack[9].node[6].app 	hops
field count 125241
field mean 3.0038805183606
field stddev 0.70759281537284
field sum 376209
field sqrsum 1192793
field min 2
field max 4
statistic Basic.rack[9].node[7].app 	throughput
field count 125289
field mean 62645
field stddev 36167.963275529
field sum 7848729405
field sqrsum 6.5557558852516e+014
field min 1
field max 125289
statistic Basic.rack[9].node[7].app 	"End-to-End Delay"
field count 125289
field mean 1.7640896238877e-005
field stddev 1.7847894395288e-005
field sum 2.2102102488726
field sqrsum 7.8900248091927e-005
field min 4e-007
field max 0.000211478063
statistic Basic.rack[9].node[7].app 	hops
field count 125289
field mean 2.9987309340804
field stddev 0.70617379146201
field sum 375708
field sqrsum 1189126
field min 2
field max 4
statistic Basic.rack[9].node[8].app 	throughput
field count 125339
field mean 62670
field stddev 36182.397032259
field sum 7854995130
field sqrsum 6.5636077473109e+014
field min 1
field max 125339
statistic Basic.rack[9].node[8].app 	"End-to-End Delay"
field count 125339
field mean 1.7739604407803e-005
field stddev 1.7851439532978e-005
field sum 2.2234642768696
field sqrsum 7.9385325137466e-005
field min 4e-007
field max 0.000224259087
statistic Basic.rack[9].node[8].app 	hops
field count 125339
field mean 3.002521162607
field stddev 0.70681450462289
field sum 376333
field sqrsum 1192565
field min 2
field max 4
statistic Basic.rack[9].node[9].app 	throughput
field count 125244
field mean 62622.5
field stddev 36154.972894472
field sum 7843092390
field sqrsum 6.5486945655957e+014
field min 1
field max 125244
statistic Basic.rack[9].node[9].app 	"End-to-End Delay"
field count 125244
field mean 1.7614612398747e-005
field stddev 1.7813305675023e-005
field sum 2.2061245152686
field sqrsum 7.860136789156e-005
field min 4e-007
field max 0.00024353109
statistic Basic.rack[9].node[9].app 	hops
field count 125244
field mean 2.9962712784644
field stddev 0.70760208261516
field sum 375265
field sqrsum 1187105
field min 2
field max 4
statistic Basic.rack[9].eps.queue[0] 	dropsum
field count 0
field mean nan
field stddev nan
field sum 0
field sqrsum 0
field min nan
field max nan
statistic Basic.rack[9].eps.queue[1] 	dropsum
field count 0
field mean nan
field stddev nan
field sum 0
field sqrsum 0
field min nan
field max nan
statistic Basic.rack[9].eps.queue[2] 	dropsum
field count 0
field mean nan
field stddev nan
field sum 0
field sqrsum 0
field min nan
field max nan
statistic Basic.rack[9].eps.queue[3] 	dropsum
field count 0
field mean nan
field stddev nan
field sum 0
field sqrsum 0
field min nan
field max nan
statistic Basic.rack[10].node[0].app 	throughput
field count 125399
field mean 62700
field stddev 36199.717540334
field sum 7862517300
field sqrsum 6.573038254409e+014
field min 1
field max 125399
statistic Basic.rack[10].node[0].app 	"End-to-End Delay"
field count 125399
field mean 1.1925698169567e-005
field stddev 1.6246703721249e-005
field sum 1.4954706247656
field sqrsum 5.0934008260123e-005
field min 4e-007
field max 0.000242212867
statistic Basic.rack[10].node[0].app 	hops
field count 125399
field mean 3.2460864919178
field stddev 0.8305778846858
field sum 407056
field sqrsum 1407846
field min 2
field max 4
statistic Basic.rack[10].node[1].app 	throughput
field count 125738
field mean 62869.5
field stddev 36297.578410963
field sum 7905085191
field sqrsum 6.6264903619237e+014
field min 1
field max 125738
statistic Basic.rack[10].node[1].app 	"End-to-End Delay"
field count 125738
field mean 1.1955123941676e-005
field stddev 1.629460022403e-005
field sum 1.5032133741785
field sqrsum 5.1356035572101e-005
field min 4e-007
field max 0.000222137395
statistic Basic.rack[10].node[1].app 	hops
field count 125738
field mean 3.2471329271978
field stddev 0.82999220074396
field sum 408288
field sqrsum 1412384
field min 2
field max 4
statistic Basic.rack[10].node[2].app 	throughput
field count 125102
field mean 62551.5
field stddev 36113.981025359
field sum 7825317753
field sqrsum 6.5264454279646e+014
field min 1
field max 125102
statistic Basic.rack[10].node[2].app 	"End-to-End Delay"
field count 125102
field mean 1.200185559555e-005
field stddev 1.6445556504921e-005
field sum 1.5014561387146
field sqrsum 5.185461694368e-005
field min 4e-007
field max 0.000239321315
statistic Basic.rack[10].node[2].app 	hops
field count 125102
field mean 3.2507234096977
field stddev 0.83011426429162
field sum 406672
field sqrsum 1408184
field min 2
field max 4
statistic Basic.rack[10].node[3].app 	throughput
field count 124584
field mean 62292.5
field stddev 35964.447305638
field sum 7760648820
field sqrsum 6.4457103527686e+014
field min 1
field max 124584
statistic Basic.rack[10].node[3].app 	"End-to-End Delay"
field count 124584
field mean 1.1976239457342e-005
field stddev 1.6293036646269e-005
field sum 1.4920478165536
field sqrsum 5.0941304238437e-005
field min 4e-007
field max 0.000242874984
statistic Basic.rack[10].node[3].app 	hops
field count 124584
field mean 3.2532026584473
field stddev 0.8282985784772
field sum 405297
field sqrsum 1403987
field min 2
field max 4
statistic Basic.rack[10].node[4].app 	throughput
field count 125389
field mean 62695
field stddev 36196.830788989
field sum 7861263355
field sqrsum 6.5714658763452e+014
field min 1
field max 125389
statistic Basic.rack[10].node[4].app 	"End-to-End Delay"
field count 125389
field mean 1.1994178923299e-005
field stddev 1.6304575265293e-005
field sum 1.5039381010135
field sqrsum 5.1371545095563e-005
field min 4e-007
field max 0.000197599564
statistic Basic.rack[10].node[4].app 	hops
field count 125389
field mean 3.2540573734538
field stddev 0.82777237429159
field sum 408023
field sqrsum 1413647
field min 2
field max 4
statistic Basic.rack[10].node[5].app 	throughput
field count 125017
field mean 62509
field stddev 36089.443638918
field sum 7814687653
field sqrsum 6.5131514243928e+014
field min 1
field max 125017
statistic Basic.rack[10].node[5].app 	"End-to-End Delay"
field count 125017
field mean 1.1832681693478e-005
field stddev 1.6185125503907e-005
field sum 1.4792863672736
field sqrsum 5.0252901997205e-005
field min 4e-007
field max 0.000213259832
statistic Basic.rack[10].node[5].app 	hops
field count 125017
field mean 3.2467264452035
field stddev 0.82964912928228
field sum 405896
field sqrsum 1403884
field min 2
field max 4
statistic Basic.rack[10].node[6].app 	throughput
field count 125472
field mean 62736.5
field stddev 36220.79082516
field sum 7871674128
field sqrsum 6.5845242135032e+014
field min 1
field max 125472
statistic Basic.rack[10].node[6].app 	"End-to-End Delay"
field count 125472
field mean 1.1898982724325e-005
field stddev 1.6228784051904e-005
field sum 1.4929891603865
field sqrsum 5.0810780088841e-005
field min 4e-007
field max 0.000199575117
statistic Basic.rack[10].node[6].app 	hops
field count 125472
field mean 3.2460628666157
field stddev 0.82907805945738
field sum 407290
field sqrsum 1408334
field min 2
field max 4
statistic Basic.rack[10].node[7].app 	throughput
field count 124956
field mean 62478.5
field stddev 36071.834455708
field sum 7807063446
field sqrsum 6.5036221566007e+014
field min 1
field max 124956
statistic Basic.rack[10].node[7].app 	"End-to-End Delay"
field count 124956
field mean 1.1877038717321e-005
field stddev 1.6245928354775e-005
field sum 1.4841072499615
field sqrsum 5.0606195923544e-005
field min 4e-007
field max 0.000234830122
statistic Basic.rack[10].node[7].app 	hops
field count 124956
field mean 3.2453823745959
field stddev 0.83045587573771
field sum 405530
field sqrsum 1402276
field min 2
field max 4
statistic Basic.rack[10].node[8].app 	throughput
field count 125206
field mean 62603.5
field stddev 36144.003239357
field sum 7838333821
field sqrsum 6.5427356237269e+014
field min 1
field max 125206
statistic Basic.rack[10].node[8].app 	"End-to-End Delay"
field count 125206
field mean 1.1945742205514e-005
field stddev 1.6296592931572e-005
field sum 1.4956785985835
field sqrsum 5.1118802291097e-005
field min 4e-007
field max 0.000258985896
statistic Basic.rack[10].node[8].app 	hops
field count 125206
field mean 3.2490535597336
field stddev 0.82940817297041
field sum 406801
field sqrsum 1407849
field min 2
field max 4
statistic Basic.rack[10].node[9].app 	throughput
field count 125222
field mean 62611.5
field stddev 36148.622041511
field sum 7840337253
field sqrsum 6.545244211092e+014
field min 1
field max 125222
statistic Basic.rack[10].node[9].app 	"End-to-End Delay"
field count 125222
field mean 1.1945453979161e-005
field stddev 1.623309112479e-005
field sum 1.4958336381785
field sqrsum 5.086580424625e-005
field min 4e-007
field max 0.000202007665
statistic Basic.rack[10].node[9].app 	hops
field count 125222
field mean 3.2450527862516
field stddev 0.82890031470316
field sum 406352
field sqrsum 1404670
field min 2
field max 4
statistic Basic.rack[10].eps.queue[0] 	dropsum
field count 0
field mean nan
field stddev nan
field sum 0
field sqrsum 0
field min nan
field max nan
statistic Basic.rack[10].eps.queue[1] 	dropsum
field count 0
field mean nan
field stddev nan
field sum 0
field sqrsum 0
field min nan
field max nan
statistic Basic.rack[10].eps.queue[2] 	dropsum
field count 0
field mean nan
field stddev nan
field sum 0
field sqrsum 0
field min nan
field max nan
statistic Basic.rack[10].eps.queue[3] 	dropsum
field count 0
field mean nan
field stddev nan
field sum 0
field sqrsum 0
field min nan
field max nan
statistic Basic.rack[11].node[0].app 	throughput
field count 124526
field mean 62263.5
field stddev 35947.704147831
field sum 7753424601
field sqrsum 6.4367121905095e+014
field min 1
field max 124526
statistic Basic.rack[11].node[0].app 	"End-to-End Delay"
field count 124526
field mean 1.1852563571243e-005
field stddev 1.6026610432781e-005
field sum 1.4759523312726
field sqrsum 4.9478344265117e-005
field min 4e-007
field max 0.000180171874
statistic Basic.rack[11].node[0].app 	hops
field count 124526
field mean 3.2485023208005
field stddev 0.8292925447251
field sum 404523
field sqrsum 1399733
field min 2
field max 4
statistic Basic.rack[11].node[1].app 	throughput
field count 125039
field mean 62520
field stddev 36095.79449188
field sum 7817438280
field sqrsum 6.5165904920804e+014
field min 1
field max 125039
statistic Basic.rack[11].node[1].app 	"End-to-End Delay"
field count 125039
field mean 1.187893263615e-005
field stddev 1.5994077174541e-005
field sum 1.4853298578916
field sqrsum 4.9630167206682e-005
field min 4e-007
field max 0.000159868343
statistic Basic.rack[11].node[1].app 	hops
field count 125039
field mean 3.2498260542711
field stddev 0.82900334545961
field sum 406355
field sqrsum 1406515
field min 2
field max 4
statistic Basic.rack[11].node[2].app 	throughput
field count 124728
field mean 62364.5
field stddev 36006.01652502
field sum 7778599356
field sqrsum 6.4680868651656e+014
field min 1
field max 124728
statistic Basic.rack[11].node[2].app 	"End-to-End Delay"
field count 124728
field mean 1.1762844558596e-005
field stddev 1.5886632117447e-005
field sum 1.4671560761046
[...]
statistic Basic.rack[13].node[2].app 	throughput
field count 124968
field mean 62484.5
field stddev 36075.298557323
field sum 7808562996
field sqrsum 6.5054960317708e+014
field min 1
field max 124968
statistic Basic.rack[13].node[2].app 	"End-to-End Delay"
field count 124968
field mean 1.7515124443175e-005
field stddev 1.7468924364584e-005
field sum 2.1888300714146
field sqrsum 7.6472975503224e-005
field min 4e-007
field max 0.000178256295
statistic Basic.rack[13].node[2].app 	hops
field count 124968
field mean 2.9963350617758
field stddev 0.70879560025717
field sum 374446
field sqrsum 1184748
field min 2
field max 4
statistic Basic.rack[13].node[3].app 	throughput
field count 124962
field mean 62481.5
field stddev 36073.566506516
field sum 7807813203
field sqrsum 6.5045590491992e+014
field min 1
field max 124962
statistic Basic.rack[13].node[3].app 	"End-to-End Delay"
field count 124962
field mean 1.7506139688974e-005
field stddev 1.7332974523086e-005
field sum 2.1876022278136
field sqrsum 7.5838754063034e-005
field min 4e-007
field max 0.000211544116
statistic Basic.rack[13].node[3].app 	hops
field count 124962
field mean 3.0005601702918
field stddev 0.70867508709062
field sum 374956
field sqrsum 1187836
field min 2
field max 4
statistic Basic.rack[13].node[4].app 	throughput
field count 125233
field mean 62617
field stddev 36151.797467991
field sum 7841714761
field sqrsum 6.5469692368113e+014
field min 1
field max 125233
statistic Basic.rack[13].node[4].app 	"End-to-End Delay"
field count 125233
field mean 1.7600535937306e-005
field stddev 1.7539857174288e-005
field sum 2.2041679170366
field sqrsum 7.7321734356274e-005
field min 4e-007
field max 0.00019619339
statistic Basic.rack[13].node[4].app 	hops
field count 125233
field mean 2.9997524614119
field stddev 0.70748494383352
field sum 375668
field sqrsum 1189594
field min 2
field max 4
statistic Basic.rack[13].node[5].app 	throughput
field count 125077
field mean 62539
field stddev 36106.764146994
field sum 7822190503
field sqrsum 6.5225335509266e+014
field min 1
field max 125077
statistic Basic.rack[13].node[5].app 	"End-to-End Delay"
field count 125077
field mean 1.7685087452558e-005
field stddev 1.7558410059956e-005
field sum 2.2119976833037
field sqrsum 7.7680023583329e-005
field min 4e-007
field max 0.00020333001
statistic Basic.rack[13].node[5].app 	hops
field count 125077
field mean 3.0024225077352
field stddev 0.70822677445964
field sum 375534
field sqrsum 1190248
field min 2
field max 4
statistic Basic.rack[13].node[6].app 	throughput
field count 126006
field mean 63003.5
field stddev 36374.943347035
field sum 7938819021
field sqrsum 6.6689519931309e+014
field min 1
field max 126006
statistic Basic.rack[13].node[6].app 	"End-to-End Delay"
field count 126006
field mean 1.7606407160831e-005
field stddev 1.7479920908805e-005
field sum 2.2185129407076
field sqrsum 7.7560571871084e-005
field min 4e-007
field max 0.000178696138
statistic Basic.rack[13].node[6].app 	hops
field count 126006
field mean 3.0002460200308
field stddev 0.70732275723638
field sum 378049
field sqrsum 1197281
field min 2
field max 4
statistic Basic.rack[13].node[7].app 	throughput
field count 124647
field mean 62324
field stddev 35982.633839117
field sum 7768499628
field sqrsum 6.4554937158742e+014
field min 1
field max 124647
statistic Basic.rack[13].node[7].app 	"End-to-End Delay"
field count 124647
field mean 1.7555492627609e-005
field stddev 1.7473971890879e-005
field sum 2.1882394895536
field sqrsum 7.6474993680158e-005
field min 4e-007
field max 0.000197453477
statistic Basic.rack[13].node[7].app 	hops
field count 124647
field mean 2.9989971680024
field stddev 0.70641363409687
field sum 373816
field sqrsum 1183274
field min 2
field max 4
statistic Basic.rack[13].node[8].app 	throughput
field count 124518
field mean 62259.5
field stddev 35945.394746754
field sum 7752428421
field sqrsum 6.4354717222686e+014
field min 1
field max 124518
statistic Basic.rack[13].node[8].app 	"End-to-End Delay"
field count 124518
field mean 1.7603920187167e-005
field stddev 1.7463358305128e-005
field sum 2.1920049338657
field sqrsum 7.6561690346677e-005
field min 4e-007
field max 0.000199901523
statistic Basic.rack[13].node[8].app 	hops
field count 124518
field mean 3.0016624102539
field stddev 0.70647135562052
field sum 373761
field sqrsum 1184051
field min 2
field max 4
statistic Basic.rack[13].node[9].app 	throughput
field count 124846
field mean 62423.5
field stddev 36040.080190902
field sum 7793324281
field sqrsum 6.4864617323191e+014
field min 1
field max 124846
statistic Basic.rack[13].node[9].app 	"End-to-End Delay"
field count 124846
field mean 1.7544925105127e-005
field stddev 1.7400622037252e-005
field sum 2.1904137196746
field sqrsum 7.6231419416015e-005
field min 4e-007
field max 0.000199805029
statistic Basic.rack[13].node[9].app 	hops
field count 124846
field mean 3.0005126315621
field stddev 0.70766992692372
field sum 374602
field sqrsum 1186520
field min 2
field max 4
statistic Basic.rack[13].eps.queue[0] 	dropsum
field count 0
field mean nan
field stddev nan
field sum 0
field sqrsum 0
field min nan
field max nan
statistic Basic.rack[13].eps.queue[1] 	dropsum
field count 0
field mean nan
field stddev nan
field sum 0
field sqrsum 0
field min nan
field max nan
statistic Basic.rack[13].eps.queue[2] 	dropsum
field count 0
field mean nan
field stddev nan
field sum 0
field sqrsum 0
field min nan
field max nan
statistic Basic.rack[13].eps.queue[3] 	dropsum
field count 0
field mean nan
field stddev nan
field sum 0
field sqrsum 0
field min nan
field max nan
statistic Basic.rack[14].node[0].app 	throughput
field count 125117
field mean 62559
field stddev 36118.311152378
field sum 7827194403
field sqrsum 6.5287933047824e+014
field min 1
field max 125117
statistic Basic.rack[14].node[0].app 	"End-to-End Delay"
field count 125117
field mean 1.1951146215299e-005
field stddev 1.6178256044148e-005
field sum 1.4952915610196
field sqrsum 5.0617805531359e-005
field min 4e-007
field max 0.000203723839
statistic Basic.rack[14].node[0].app 	hops
field count 125117
field mean 3.2516364682657
field stddev 0.82961022207365
field sum 406835
field sqrsum 1408991
field min 2
field max 4
statistic Basic.rack[14].node[1].app 	throughput
field count 125315
field mean 62658
field stddev 36175.468829028
field sum 7851987270
field sqrsum 6.5598380715579e+014
field min 1
field max 125315
statistic Basic.rack[14].node[1].app 	"End-to-End Delay"
field count 125315
field mean 1.1832488747513e-005
field stddev 1.6106565275776e-005
field sum 1.4827883273946
field sqrsum 5.0054215155419e-005
field min 4e-007
field max 0.000177465586
statistic Basic.rack[14].node[1].app 	hops
field count 125315
field mean 3.2494434026254
field stddev 0.83038849477062
field sum 407204
field sqrsum 1409596
field min 2
field max 4
statistic Basic.rack[14].node[2].app 	throughput
field count 124972
field mean 62486.5
field stddev 36076.453257862
field sum 7809062878
field sqrsum 6.5061207368057e+014
field min 1
field max 124972
statistic Basic.rack[14].node[2].app 	"End-to-End Delay"
field count 124972
field mean 1.1865752340345e-005
field stddev 1.5986648286849e-005
field sum 1.4828868014776
field sqrsum 4.9534771351244e-005
field min 4e-007
field max 0.000184263321
statistic Basic.rack[14].node[2].app 	hops
field count 124972
field mean 3.2495198924559
field stddev 0.82946813656871
field sum 406099
field sqrsum 1405609
field min 2
field max 4
statistic Basic.rack[14].node[3].app 	throughput
field count 125367
field mean 62684
field stddev 36190.479936027
field sum 7858505028
field sqrsum 6.5680075273186e+014
field min 1
field max 125367
statistic Basic.rack[14].node[3].app 	"End-to-End Delay"
field count 125367
field mean 1.190881637291e-005
field stddev 1.5989439482321e-005
field sum 1.4929725822226
field sqrsum 4.9830880557361e-005
field min 4e-007
field max 0.000168065966
statistic Basic.rack[14].node[3].app 	hops
field count 125367
field mean 3.249810556207
field stddev 0.82787238917678
field sum 407419
field sqrsum 1409957
field min 2
field max 4
statistic Basic.rack[14].node[4].app 	throughput
field count 125223
field mean 62612
field stddev 36148.910716645
field sum 7840462476
field sqrsum 6.5454010190892e+014
field min 1
field max 125223
statistic Basic.rack[14].node[4].app 	"End-to-End Delay"
field count 125223
field mean 1.1853678017254e-005
field stddev 1.6059800889877e-005
field sum 1.4843531223545
field sqrsum 4.9891952173534e-005
field min 4e-007
field max 0.000191424453
statistic Basic.rack[14].node[4].app 	hops
field count 125223
field mean 3.247614256167
field stddev 0.82844847850101
field sum 406676
field sqrsum 1406670
field min 2
field max 4
statistic Basic.rack[14].node[5].app 	throughput
field count 125507
field mean 62754
field stddev 36230.894454871
field sum 7876066278
field sqrsum 6.5900359225739e+014
field min 1
field max 125507
statistic Basic.rack[14].node[5].app 	"End-to-End Delay"
field count 125507
field mean 1.1960245585605e-005
field stddev 1.6060152625234e-005
field sum 1.5010945427125
field sqrsum 5.0325033993466e-005
field min 4e-007
field max 0.000194441449
statistic Basic.rack[14].node[5].app 	hops
field count 125507
field mean 3.2521373309855
field stddev 0.82611759067344
field sum 408166
field sqrsum 1413066
field min 2
field max 4
statistic Basic.rack[14].node[6].app 	throughput
field count 124957
field mean 62479
field stddev 36072.123130843
field sum 7807188403
field sqrsum 6.5037782991192e+014
field min 1
field max 124957
statistic Basic.rack[14].node[6].app 	"End-to-End Delay"
field count 124957
field mean 1.1979831061161e-005
field stddev 1.6172099413963e-005
field sum 1.4969637499095
field sqrsum 5.0613965141311e-005
field min 4e-007
field max 0.000172439498
statistic Basic.rack[14].node[6].app 	hops
field count 124957
field mean 3.2507742663476
field stddev 0.82863719314082
field sum 406207
field sqrsum 1406287
field min 2
field max 4
statistic Basic.rack[14].node[7].app 	throughput
field count 125172
field mean 62586.5
field stddev 36134.188284781
field sum 7834077378
field sqrsum 6.5374070039847e+014
field min 1
field max 125172
statistic Basic.rack[14].node[7].app 	"End-to-End Delay"
field count 125172
field mean 1.1875275060266e-005
field stddev 1.616556902706e-005
field sum 1.4864519298436
field sqrsum 5.0362414958191e-005
field min 4e-007
field max 0.000184037635
statistic Basic.rack[14].node[7].app 	hops
field count 125172
field mean 3.2486498577957
field stddev 0.82955095013522
field sum 406640
field sqrsum 1407168
field min 2
field max 4
statistic Basic.rack[14].node[8].app 	throughput
field count 125340
field mean 62670.5
field stddev 36182.685707393
field sum 7855120470
field sqrsum 6.5637648484669e+014
field min 1
field max 125340
statistic Basic.rack[14].node[8].app 	"End-to-End Delay"
field count 125340
field mean 1.1948924692872e-005
field stddev 1.6105451236805e-005
field sum 1.4976782210045
field sqrsum 5.040677092426e-005
field min 4e-007
field max 0.000172361452
statistic Basic.rack[14].node[8].app 	hops
field count 125340
field mean 3.2517073559917
field stddev 0.82919142456695
field sum 407569
field sqrsum 1411473
field min 2
field max 4
statistic Basic.rack[14].node[9].app 	throughput
field count 125074
field mean 62537.5
field stddev 36105.89812159
field sum 7821815275
field sqrsum 6.5220642307532e+014
field min 1
field max 125074
statistic Basic.rack[14].node[9].app 	"End-to-End Delay"
field count 125074
field mean 1.18144775147e-005
field stddev 1.5976073756267e-005
field sum 1.4776839606736
field sqrsum 4.9381062660506e-005
field min 4e-007
field max 0.000169671427
statistic Basic.rack[14].node[9].app 	hops
field count 125074
field mean 3.2440715096663
field stddev 0.83054619673812
field sum 405749
field sqrsum 1402555
field min 2
field max 4
statistic Basic.rack[14].eps.queue[0] 	dropsum
field count 0
field mean nan
field stddev nan
field sum 0
field sqrsum 0
field min nan
field max nan
statistic Basic.rack[14].eps.queue[1] 	dropsum
field count 0
field mean nan
field stddev nan
field sum 0
field sqrsum 0
field min nan
field max nan
statistic Basic.rack[14].eps.queue[2] 	dropsum
field count 0
field mean nan
field stddev nan
field sum 0
field sqrsum 0
field min nan
field max nan
statistic Basic.rack[14].eps.queue[3] 	dropsum
field count 0
field mean nan
field stddev nan
field sum 0
field sqrsum 0
field min nan
field max nan
statistic Basic.rack[15].node[0].app 	throughput
field count 125577
field mean 62789
field stddev 36251.101714293
field sum 7884854253
field sqrsum 6.601068566374e+014
field min 1
field max 125577
statistic Basic.rack[15].node[0].app 	"End-to-End Delay"
field count 125577
field mean 1.1866862635933e-005
field stddev 1.597852624338e-005
field sum 1.4902050092326
field sqrsum 4.9745281219066e-005
field min 4e-007
field max 0.000172959803
statistic Basic.rack[15].node[0].app 	hops
field count 125577
field mean 3.2480390517372
field stddev 0.82944705314345
field sum 407879
field sqrsum 1411201
field min 2
field max 4
statistic Basic.rack[15].node[1].app 	throughput
field count 125359
field mean 62680
field stddev 36188.170534951
field sum 7857502120
field sqrsum 6.5667502467476e+014
field min 1
field max 125359
statistic Basic.rack[15].node[1].app 	"End-to-End Delay"
field count 125359
field mean 1.1926103054775e-005
field stddev 1.6048937085182e-005
field sum 1.4950443528435
field sqrsum 5.0118310199587e-005
field min 4e-007
field max 0.000162963158
statistic Basic.rack[15].node[1].app 	hops
field count 125359
field mean 3.2506880239951
field stddev 0.82959023818304
field sum 407503
field sqrsum 1410939
field min 2
field max 4
statistic Basic.rack[15].node[2].app 	throughput
field count 125193
field mean 62597
field stddev 36140.250462607
field sum 7836706221
field sqrsum 6.5406978685251e+014
field min 1
field max 125193
statistic Basic.rack[15].node[2].app 	"End-to-End Delay"
field count 125193
field mean 1.1853071091528e-005
field stddev 1.6060137528981e-005
field sum 1.4839215291616
field sqrsum 4.9879551739973e-005
field min 4e-007
field max 0.00015997252
statistic Basic.rack[15].node[2].app 	hops
field count 125193
field mean 3.2422659413865
field stddev 0.83118915257376
field sum 405909
field sqrsum 1402557
field min 2
field max 4
statistic Basic.rack[15].node[3].app 	throughput
field count 125480
field mean 62740.5
field stddev 36223.100226237
field sum 7872677940
field sqrsum 6.5857837616678e+014
field min 1
field max 125480
statistic Basic.rack[15].node[3].app 	"End-to-End Delay"
field count 125480
field mean 1.1888281653336e-005
field stddev 1.6069557705405e-005
field sum 1.4917415818606
field sqrsum 5.0136772183111e-005
field min 4e-007
field max 0.000169902854
statistic Basic.rack[15].node[3].app 	hops
field count 125480
field mean 3.2504861332483
field stddev 0.83031433689515
field sum 407871
field sqrsum 1412287
field min 2
field max 4
statistic Basic.rack[15].node[4].app 	throughput
field count 125043
field mean 62522
field stddev 36096.949192418
field sum 7817938446
field sqrsum 6.5172159071493e+014
field min 1
field max 125043
statistic Basic.rack[15].node[4].app 	"End-to-End Delay"
field count 125043
field mean 1.1891613463773e-005
field stddev 1.6129540511667e-005
field sum 1.4869630223505
field sqrsum 5.0213575943644e-005
field min 4e-007
field max 0.000184632207
statistic Basic.rack[15].node[4].app 	hops
field count 125043
field mean 3.248690450485
field stddev 0.82866944895021
field sum 406226
field sqrsum 1405568
field min 2
field max 4
statistic Basic.rack[15].node[5].app 	throughput
field count 124779
field mean 62390
field stddev 36020.738956884
field sum 7784961810
field sqrsum 6.4760242811393e+014
field min 1
field max 124779
statistic Basic.rack[15].node[5].app 	"End-to-End Delay"
field count 124779
field mean 1.1929247989482e-005
field stddev 1.6120731909591e-005
field sum 1.4885196348796
field sqrsum 5.0183976608905e-005
field min 4e-007
field max 0.000177851457
statistic Basic.rack[15].node[5].app 	hops
field count 124779
field mean 3.2509957605046
field stddev 0.82851410360654
field sum 405656
field sqrsum 1404438
field min 2
field max 4
statistic Basic.rack[15].node[6].app 	throughput
field count 125217
field mean 62609
field stddev 36147.178665838
field sum 7839711153
field sqrsum 6.5444602086718e+014
field min 1
field max 125217
statistic Basic.rack[15].node[6].app 	"End-to-End Delay"
field count 125217
field mean 1.1950689757609e-005
field stddev 1.6270444164506e-005
field sum 1.4964295193785
field sqrsum 5.1031465202324e-005
field min 4e-007
field max 0.000171682088
statistic Basic.rack[15].node[6].app 	hops
field count 125217
field mean 3.2499021698332
field stddev 0.82888676088791
field sum 406943
field sqrsum 1408555
field min 2
field max 4
statistic Basic.rack[15].node[7].app 	throughput
field count 125077
field mean 62539
field stddev 36106.764146994
field sum 7822190503
field sqrsum 6.5225335509266e+014
field min 1
field max 125077
statistic Basic.rack[15].node[7].app 	"End-to-End Delay"
field count 125077
field mean 1.1883410755099e-005
field stddev 1.6114781366952e-005
field sum 1.4863413670156
field sqrsum 5.0143313449191e-005
field min 4e-007
field max 0.000170966454
statistic Basic.rack[15].node[7].app 	hops
field count 125077
field mean 3.2468959121181
field stddev 0.83097113474702
field sum 406112
field sqrsum 1404970
field min 2
field max 4
statistic Basic.rack[15].node[8].app 	throughput
field count 125122
field mean 62561.5
field stddev 36119.754528051
field sum 7827820003
field sqrsum 6.5295760555024e+014
field min 1
field max 125122
statistic Basic.rack[15].node[8].app 	"End-to-End Delay"
field count 125122
field mean 1.1850603006774e-005
field stddev 1.6046783171326e-005
field sum 1.4827711494135
field sqrsum 4.9790295919308e-005
field min 4e-007
field max 0.000176727868
statistic Basic.rack[15].node[8].app 	hops
field count 125122
field mean 3.2490769009447
field stddev 0.83016686497206
field sum 406531
field sqrsum 1407081
field min 2
field max 4
statistic Basic.rack[15].node[9].app 	throughput
field count 125012
field mean 62506.5
field stddev 36088.000263245
field sum 7814062578
field sqrsum 6.5123699868815e+014
field min 1
field max 125012
statistic Basic.rack[15].node[9].app 	"End-to-End Delay"
field count 125012
field mean 1.1954124496525e-005
field stddev 1.609100082634e-005
field sum 1.4944090115595
field sqrsum 5.0232237945455e-005
field min 4e-007
field max 0.000175466948
statistic Basic.rack[15].node[9].app 	hops
field count 125012
field mean 3.2564153841231
field stddev 0.8266853687649
field sum 407091
field sqrsum 1411091
field min 2
field max 4
statistic Basic.rack[15].eps.queue[0] 	dropsum
field count 0
field mean nan
field stddev nan
field sum 0
field sqrsum 0
field min nan
field max nan
statistic Basic.rack[15].eps.queue[1] 	dropsum
field count 0
field mean nan
field stddev nan
field sum 0
field sqrsum 0
field min nan
field max nan
statistic Basic.rack[15].eps.queue[2] 	dropsum
field count 0
field mean nan
field stddev nan
field sum 0
field sqrsum 0
field min nan
field max nan
statistic Basic.rack[15].eps.queue[3] 	dropsum
field count 0
field mean nan
field stddev nan
field sum 0
field sqrsum 0
field min nan
field max nan
