version 2
run Basic-45-20180510-17:39:47-16872
attr configname Basic
attr datetime 20180510-17:39:47
attr experiment Basic
attr inifile omnetpp.ini
attr iterationvars "$0=exponential(0.1 ms), $1=7, $2=3"
attr iterationvarsf exponential(0.1_ms),7,3-
attr measurement "$0=exponential(0.1 ms), $1=7, $2=3"
attr network Networks.Basic
attr processid 16872
attr repetition 0
attr replication #0
attr resultdir results
attr runnumber 45
attr seedset 45
param **.frameCapacity 50
param **.packetLength "1024 bytes"
param **.pattern 7
param **.sendIaTime "exponential(0.1 ms)"
param **.tp 3

statistic Basic.rack[0].node[0].app 	throughput
field count 99675
field mean 49838
field stddev 28773.838377943
field sum 4967602650
field sqrsum 3.3009885196005e+014
field min 1
field max 99675
statistic Basic.rack[0].node[0].app 	"End-to-End Delay"
field count 99675
field mean 1.3389238068214e-005
field stddev 1.1657061291839e-005
field sum 1.3345723044492
field sqrsum 3.1413314912268e-005
field min 4e-007
field max 0.000147282513
statistic Basic.rack[0].node[0].app 	hops
field count 99675
field mean 3.0000702282418
field stddev 0.70832592823304
field sum 299032
field sqrsum 947126
field min 2
field max 4
statistic Basic.rack[0].node[1].app 	throughput
field count 100388
field mean 50194.5
field stddev 28979.663748912
field sum 5038925466
field sqrsum 3.3723344609569e+014
field min 1
field max 100388
statistic Basic.rack[0].node[1].app 	"End-to-End Delay"
field count 100388
field mean 1.3520479672054e-005
field stddev 1.1719005394531e-005
field sum 1.3572939133182
field sqrsum 3.2137922186564e-005
field min 4e-007
field max 0.000110054909
statistic Basic.rack[0].node[1].app 	hops
field count 100388
field mean 3.0049607522811
field stddev 0.70792359928235
field sum 301662
field sqrsum 956792
field min 2
field max 4
statistic Basic.rack[0].node[2].app 	throughput
field count 99542
field mean 49771.5
field stddev 28735.444585042
field sum 4954354653
field sqrsum 3.2877923203084e+014
field min 1
field max 99542
statistic Basic.rack[0].node[2].app 	"End-to-End Delay"
field count 99542
field mean 1.3420572802417e-005
field stddev 1.1741923703132e-005
field sum 1.3359106578982
field sqrsum 3.1652679864401e-005
field min 4e-007
field max 0.000114641254
statistic Basic.rack[0].node[2].app 	hops
field count 99542
field mean 2.9974884973177
field stddev 0.70895750964923
field sum 298376
field sqrsum 944410
field min 2
field max 4
statistic Basic.rack[0].node[3].app 	throughput
field count 99590
field mean 49795.5
field stddev 28749.300991502
field sum 4959133845
field sqrsum 3.2925507946032e+014
field min 1
field max 99590
statistic Basic.rack[0].node[3].app 	"End-to-End Delay"
field count 99590
field mean 1.3405046638339e-005
field stddev 1.1623520618401e-005
field sum 1.3350085947122
field sqrsum 3.1350946970166e-005
field min 4e-007
field max 0.000112687368
statistic Basic.rack[0].node[3].app 	hops
field count 99590
field mean 2.9992569535094
field stddev 0.70654880101189
field sum 298696
field sqrsum 945582
field min 2
field max 4
statistic Basic.rack[0].node[4].app 	throughput
field count 100151
field mean 50076
field stddev 28911.247742012
field sum 5015161476
field sqrsum 3.3485062970908e+014
field min 1
field max 100151
statistic Basic.rack[0].node[4].app 	"End-to-End Delay"
field count 100151
field mean 1.3450397027271e-005
field stddev 1.1645064901628e-005
field sum 1.3470707126782
field sqrsum 3.1699730696127e-005
field min 4e-007
field max 0.000108501056
statistic Basic.rack[0].node[4].app 	hops
field count 100151
field mean 3.0025062156144
field stddev 0.70830161134918
field sum 300704
field sqrsum 953110
field min 2
field max 4
statistic Basic.rack[0].node[5].app 	throughput
field count 100556
field mean 50278.5
field stddev 29028.161171524
field sum 5055804846
field sqrsum 3.3892935999787e+014
field min 1
field max 100556
statistic Basic.rack[0].node[5].app 	"End-to-End Delay"
field count 100556
field mean 1.3429436266659e-005
field stddev 1.1622556187129e-005
field sum 1.3504103932302
field sqrsum 3.1718603057855e-005
field min 4e-007
field max 0.000130462054
statistic Basic.rack[0].node[5].app 	hops
field count 100556
field mean 3.0012033095986
field stddev 0.70537022709533
field sum 301789
field sqrsum 955761
field min 2
field max 4
statistic Basic.rack[0].node[6].app 	throughput
field count 99865
field mean 49933
field stddev 28828.686653517
field sum 4986559045
field sqrsum 3.3199014153896e+014
field min 1
field max 99865
statistic Basic.rack[0].node[6].app 	"End-to-End Delay"
field count 99865
field mean 1.3345590255046e-005
field stddev 1.156660775527e-005
field sum 1.3327573708202
field sqrsum 3.114688032435e-005
field min 4e-007
field max 0.000106345533
statistic Basic.rack[0].node[6].app 	hops
field count 99865
field mean 2.9961648225104
field stddev 0.70616818622766
field sum 299212
field sqrsum 946288
field min 2
field max 4
statistic Basic.rack[0].node[7].app 	throughput
field count 99564
field mean 49782.5
field stddev 28741.795438003
field sum 4956544830
field sqrsum 3.2899727181769e+014
field min 1
field max 99564
statistic Basic.rack[0].node[7].app 	"End-to-End Delay"
field count 99564
field mean 1.3486162097618e-005
field stddev 1.1710752605752e-005
field sum 1.3427362430872
field sqrsum 3.1762600353412e-005
field min 4e-007
field max 0.000162332865
statistic Basic.rack[0].node[7].app 	hops
field count 99564
field mean 3.0034249327066
field stddev 0.70869822020424
field sum 299033
field sqrsum 948129
field min 2
field max 4
statistic Basic.rack[0].node[8].app 	throughput
field count 100194
field mean 50097.5
field stddev 28923.6607728
field sum 5019468915
field sqrsum 3.3528211880264e+014
field min 1
field max 100194
statistic Basic.rack[0].node[8].app 	"End-to-End Delay"
field count 100194
field mean 1.3429507293792e-005
field stddev 1.1680632400392e-005
field sum 1.3455560537942
field sqrsum 3.1740204540387e-005
field min 4e-007
field max 0.000107457353
statistic Basic.rack[0].node[8].app 	hops
field count 100194
field mean 2.997714433998
field stddev 0.70721952624297
field sum 300353
field sqrsum 950485
field min 2
field max 4
statistic Basic.rack[0].node[9].app 	throughput
field count 99988
field mean 49994.5
field stddev 28864.193695073
field sum 4998850066
field sqrsum 3.3321834654949e+014
field min 1
field max 99988
statistic Basic.rack[0].node[9].app 	"End-to-End Delay"
field count 99988
field mean 1.3445266668492e-005
field stddev 1.165911527517e-005
field sum 1.3443653236492
field sqrsum 3.166708002171e-005
field min 4e-007
field max 0.000117162174
statistic Basic.rack[0].node[9].app 	hops
field count 99988
field mean 3.0007900948114
field stddev 0.70778139274079
field sum 300043
field sqrsum 950455
field min 2
field max 4
statistic Basic.rack[0].eps.queue[0] 	dropsum
field count 0
field mean nan
field stddev nan
field sum 0
field sqrsum 0
field min nan
field max nan
statistic Basic.rack[0].eps.queue[1] 	dropsum
field count 0
field mean nan
field stddev nan
field sum 0
field sqrsum 0
field min nan
field max nan
statistic Basic.rack[0].eps.queue[2] 	dropsum
field count 0
field mean nan
field stddev nan
field sum 0
field sqrsum 0
field min nan
field max nan
statistic Basic.rack[0].eps.queue[3] 	dropsum
field count 0
field mean nan
field stddev nan
field sum 0
field sqrsum 0
field min nan
field max nan
statistic Basic.rack[1].node[0].app 	throughput
field count 99719
field mean 49860
field stddev 28786.540083866
field sum 4971989340
field sqrsum 3.3053619399342e+014
field min 1
field max 99719
statistic Basic.rack[1].node[0].app 	"End-to-End Delay"
field count 99719
field mean 1.3397615212198e-005
field stddev 1.1577605350395e-005
field sum 1.3359967913452
field sqrsum 3.126546595345e-005
field min 4e-007
field max 0.000121865939
statistic Basic.rack[1].node[0].app 	hops
field count 99719
field mean 2.9985459140184
field stddev 0.70760148755862
field sum 299012
field sqrsum 946530
field min 2
field max 4
statistic Basic.rack[1].node[1].app 	throughput
field count 99927
field mean 49964
field stddev 28846.584511862
field sum 4992752628
field sqrsum 3.3260885882298e+014
field min 1
field max 99927
statistic Basic.rack[1].node[1].app 	"End-to-End Delay"
field count 99927
field mean 1.3470757780331e-005
field stddev 1.1694149983891e-005
field sum 1.3460924127152
field sqrsum 3.1798079493556e-005
field min 4e-007
field max 0.000112444073
statistic Basic.rack[1].node[1].app 	hops
field count 99927
field mean 3.0017112492119
field stddev 0.70651004914049
field sum 299952
field sqrsum 950248
field min 2
field max 4
statistic Basic.rack[1].node[2].app 	throughput
field count 100026
field mean 50013.5
field stddev 28875.163350187
field sum 5002650351
field sqrsum 3.335984035562e+014
field min 1
field max 100026
statistic Basic.rack[1].node[2].app 	"End-to-End Delay"
field count 100026
field mean 1.3421813258035e-005
field stddev 1.164685352977e-005
field sum 1.3425302929482
field sqrsum 3.1587501829525e-005
field min 4e-007
field max 0.000119376471
statistic Basic.rack[1].node[2].app 	hops
field count 100026
field mean 2.9992202027473
field stddev 0.70854349428057
field sum 300000
field sqrsum 949982
field min 2
field max 4
statistic Basic.rack[1].node[3].app 	throughput
field count 100181
field mean 50091
field stddev 28919.90799605
field sum 5018166471
field sqrsum 3.3515162954299e+014
field min 1
field max 100181
statistic Basic.rack[1].node[3].app 	"End-to-End Delay"
field count 100181
field mean 1.3419143076823e-005
field stddev 1.1621118672226e-005
field sum 1.3443431725792
field sqrsum 3.1569282368442e-005
field min 4e-007
field max 0.000107214766
statistic Basic.rack[1].node[3].app 	hops
field count 100181
field mean 2.9991215899222
field stddev 0.70826286200258
field sum 300455
field sqrsum 951355
field min 2
field max 4
statistic Basic.rack[1].node[4].app 	throughput
field count 99914
field mean 49957.5
field stddev 28842.831735112
field sum 4991453655
field sqrsum 3.3247906414166e+014
field min 1
field max 99914
statistic Basic.rack[1].node[4].app 	"End-to-End Delay"
field count 99914
field mean 1.344399688125e-005
field stddev 1.1598872459179e-005
field sum 1.3432435043932
field sqrsum 3.150024127197e-005
field min 4e-007
field max 0.000122482307
statistic Basic.rack[1].node[4].app 	hops
field count 99914
field mean 3.005174450027
field stddev 0.70846306778998
field sum 300259
field sqrsum 952479
field min 2
field max 4
statistic Basic.rack[1].node[5].app 	throughput
field count 100057
field mean 50029
field stddev 28884.11227936
field sum 5005751653
field sqrsum 3.3390866401336e+014
field min 1
field max 100057
statistic Basic.rack[1].node[5].app 	"End-to-End Delay"
field count 100057
field mean 1.3437110252358e-005
field stddev 1.1643249282372e-005
field sum 1.3444769405202
field sqrsum 3.1630001920884e-005
field min 4e-007
field max 0.000112326403
statistic Basic.rack[1].node[5].app 	hops
field count 100057
field mean 3.001858940404
field stddev 0.70755648969296
field sum 300357
field sqrsum 951721
field min 2
field max 4
statistic Basic.rack[1].node[6].app 	throughput
field count 99264
field mean 49632.5
field stddev 28655.192897623
field sum 4926720480
field sqrsum 3.2603229672464e+014
field min 1
field max 99264
statistic Basic.rack[1].node[6].app 	"End-to-End Delay"
field count 99264
field mean 1.3382703125163e-005
field stddev 1.1557674023746e-005
field sum 1.3284206430162
field sqrsum 3.1037393640887e-005
field min 4e-007
field max 0.000100332627
statistic Basic.rack[1].node[6].app 	hops
field count 99264
field mean 3.0003928916828
field stddev 0.70856905339886
field sum 297831
field sqrsum 943447
field min 2
field max 4
statistic Basic.rack[1].node[7].app 	throughput
field count 99698
field mean 49849.5
field stddev 28780.477906039
field sum 4969895451
field sqrsum 3.3032741441435e+014
field min 1
field max 99698
statistic Basic.rack[1].node[7].app 	"End-to-End Delay"
field count 99698
field mean 1.3429663098529e-005
field stddev 1.1634477910923e-005
field sum 1.3389105515972
field sqrsum 3.1476210846885e-005
field min 4e-007
field max 0.000114207177
statistic Basic.rack[1].node[7].app 	hops
field count 99698
field mean 3.0023470882064
field stddev 0.70823325159141
field sum 299328
field sqrsum 948694
field min 2
field max 4
statistic Basic.rack[1].node[8].app 	throughput
field count 99781
field mean 49891
field stddev 28804.437942211
field sum 4978173871
field sqrsum 3.3115310407279e+014
field min 1
field max 99781
statistic Basic.rack[1].node[8].app 	"End-to-End Delay"
field count 99781
field mean 1.339378073433e-005
field stddev 1.1592608377967e-005
field sum 1.3364448354522
field sqrsum 3.1309340504884e-005
field min 4e-007
field max 0.000128173978
statistic Basic.rack[1].node[8].app 	hops
field count 99781
field mean 3.0010021948066
field stddev 0.70500529731167
field sum 299443
field sqrsum 948223
field min 2
field max 4
statistic Basic.rack[1].node[9].app 	throughput
field count 100171
field mean 50086
field stddev 28917.021244704
field sum 5017164706
field sqrsum 3.3505127623139e+014
field min 1
field max 100171
statistic Basic.rack[1].node[9].app 	"End-to-End Delay"
field count 100171
field mean 1.3421952716407e-005
field stddev 1.1605223812644e-005
field sum 1.3444904255552
field sqrsum 3.1536704700974e-005
field min 4e-007
field max 0.000101532506
statistic Basic.rack[1].node[9].app 	hops
field count 100171
field mean 3.0014075930159
field stddev 0.70796606428694
field sum 300654
field sqrsum 952592
field min 2
field max 4
statistic Basic.rack[1].eps.queue[0] 	dropsum
field count 0
field mean nan
field stddev nan
field sum 0
field sqrsum 0
field min nan
field max nan
statistic Basic.rack[1].eps.queue[1] 	dropsum
field count 0
field mean nan
field stddev nan
field sum 0
field sqrsum 0
field min nan
field max nan
statistic Basic.rack[1].eps.queue[2] 	dropsum
field count 0
field mean nan
field stddev nan
field sum 0
field sqrsum 0
field min nan
field max nan
statistic Basic.rack[1].eps.queue[3] 	dropsum
field count 0
field mean nan
field stddev nan
field sum 0
field sqrsum 0
field min nan
field max nan
statistic Basic.rack[2].node[0].app 	throughput
field count 99504
field mean 49752.5
field stddev 28724.474929927
field sum 4950572760
field sqrsum 3.2840284479828e+014
field min 1
field max 99504
statistic Basic.rack[2].node[0].app 	"End-to-End Delay"
field count 99504
field mean 9.6143189464816e-006
field stddev 1.1551966126022e-005
field sum 0.95666319245071
field sqrsum 2.2476133577332e-005
field min 4e-007
field max 0.000105656573
statistic Basic.rack[2].node[0].app 	hops
field count 99504
field mean 3.2477488342177
field stddev 0.83032007780357
field sum 323164
field sqrsum 1118156
field min 2
field max 4
statistic Basic.rack[2].node[1].app 	throughput
field count 99820
field mean 49910.5
field stddev 28815.69627246
field sum 4982066110
field sqrsum 3.3154155342217e+014
field min 1
field max 99820
statistic Basic.rack[2].node[1].app 	"End-to-End Delay"
field count 99820
field mean 9.5748255562483e-006
field stddev 1.1508966572359e-005
field sum 0.9557590870247
field sqrsum 2.2372883096035e-005
field min 4e-007
field max 0.000103196251
statistic Basic.rack[2].node[1].app 	hops
field count 99820
field mean 3.2503005409738
field stddev 0.8291663375182
field sum 324445
field sqrsum 1123171
field min 2
field max 4
statistic Basic.rack[2].node[2].app 	throughput
field count 100259
field mean 50130
field stddev 28942.424656549
field sum 5025983670
field sqrsum 3.3593507317491e+014
field min 1
field max 100259
statistic Basic.rack[2].node[2].app 	"End-to-End Delay"
field count 100259
field mean 9.5915574362572e-006
field stddev 1.1534280602186e-005
field sum 0.96163995700171
field sqrsum 2.2561912005862e-005
field min 4e-007
field max 0.000118879541
statistic Basic.rack[2].node[2].app 	hops
field count 100259
field mean 3.2460427492794
field stddev 0.83156605221224
field sum 325445
field sqrsum 1125737
field min 2
field max 4
statistic Basic.rack[2].node[3].app 	throughput
field count 99774
field mean 49887.5
field stddev 28802.417216268
field sum 4977475425
field sqrsum 3.3108341452778e+014
field min 1
field max 99774
statistic Basic.rack[2].node[3].app 	"End-to-End Delay"
field count 99774
field mean 9.6150835384641e-006
field stddev 1.1537801861743e-005
field sum 0.95933534496672
field sqrsum 2.2505958225443e-005
field min 4e-007
field max 0.000107227821
statistic Basic.rack[2].node[3].app 	hops
field count 99774
field mean 3.2515585222603
field stddev 0.82945347715742
field sum 324421
field sqrsum 1123517
field min 2
field max 4
statistic Basic.rack[2].node[4].app 	throughput
field count 100399
field mean 50200
field stddev 28982.839175393
field sum 5040029800
field sqrsum 3.373443146034e+014
field min 1
field max 100399
statistic Basic.rack[2].node[4].app 	"End-to-End Delay"
field count 100399
field mean 9.6047765992562e-006
field stddev 1.1499565371892e-005
field sum 0.96430996578872
field sqrsum 2.2538613689568e-005
field min 4e-007
field max 0.000112930517
statistic Basic.rack[2].node[4].app 	hops
field count 100399
field mean 3.2493849540334
field stddev 0.82825640997223
field sum 326235
field sqrsum 1128937
field min 2
field max 4
statistic Basic.rack[2].node[5].app 	throughput
field count 100277
field mean 50139
field stddev 28947.620808971
field sum 5027788503
field sqrsum 3.3611604107306e+014
field min 1
field max 100277
statistic Basic.rack[2].node[5].app 	"End-to-End Delay"
field count 100277
field mean 9.583279514123e-006
field stddev 1.1491096844686e-005
field sum 0.96098251983772
field sqrsum 2.2450339269835e-005
field min 4e-007
field max 0.000115435644
statistic Basic.rack[2].node[5].app 	hops
field count 100277
field mean 3.2458290535217
field stddev 0.83007768316376
field sum 325482
field sqrsum 1125552
field min 2
field max 4
statistic Basic.rack[2].node[6].app 	throughput
field count 100059
field mean 50030
field stddev 28884.689629629
field sum 5005951770
field sqrsum 3.3392868742021e+014
field min 1
field max 100059
statistic Basic.rack[2].node[6].app 	"End-to-End Delay"
field count 100059
field mean 9.5831197417794e-006
field stddev 1.1557999082541e-005
field sum 0.95887737824271
field sqrsum 2.2555519078468e-005
field min 4e-007
field max 0.000122092897
statistic Basic.rack[2].node[6].app 	hops
field count 100059
field mean 3.2488631707293
field stddev 0.8301089777409
field sum 325078
field sqrsum 1125082
field min 2
field max 4
statistic Basic.rack[2].node[7].app 	throughput
field count 99954
field mean 49977.5
field stddev 28854.378740496
field sum 4995451035
field sqrsum 3.328785403186e+014
field min 1
field max 99954
statistic Basic.rack[2].node[7].app 	"End-to-End Delay"
field count 99954
field mean 9.6207103098297e-006
field stddev 1.1548416146394e-005
field sum 0.96162847830872
field sqrsum 2.2581872366491e-005
field min 4e-007
field max 0.000117780296
statistic Basic.rack[2].node[7].app 	hops
field count 99954
field mean 3.2458230786162
field stddev 0.82900652573335
field sum 324433
field sqrsum 1121745
field min 2
field max 4
statistic Basic.rack[2].node[8].app 	throughput
field count 100296
field mean 50148.5
field stddev 28953.105636529
field sum 5029693956
field sqrsum 3.3630713323864e+014
field min 1
field max 100296
statistic Basic.rack[2].node[8].app 	"End-to-End Delay"
field count 100296
field mean 9.5958950118819e-006
field stddev 1.1567764117142e-005
field sum 0.96242988611171
field sqrsum 2.2656167694576e-005
field min 4e-007
field max 0.000104515147
statistic Basic.rack[2].node[8].app 	hops
field count 100296
field mean 3.2489331578528
field stddev 0.82939109243197
field sum 325855
field sqrsum 1127673
field min 2
field max 4
statistic Basic.rack[2].node[9].app 	throughput
field count 99310
field mean 49655.5
field stddev 28668.471953815
field sum 4931287705
field sqrsum 3.2648576508494e+014
field min 1
field max 99310
statistic Basic.rack[2].node[9].app 	"End-to-End Delay"
field count 99310
field mean 9.6675982606555e-006
field stddev 1.1564674509647e-005
field sum 0.96008918326569
field sqrsum 2.256351065733e-005
field min 4e-007
field max 0.000120149605
statistic Basic.rack[2].node[9].app 	hops
field count 99310
field mean 3.2534588661766
field stddev 0.82852596503861
field sum 323101
field sqrsum 1119367
field min 2
field max 4
statistic Basic.rack[2].eps.queue[0] 	dropsum
field count 0
field mean nan
field stddev nan
field sum 0
field sqrsum 0
field min nan
field max nan
statistic Basic.rack[2].eps.queue[1] 	dropsum
field count 0
field mean nan
field stddev nan
field sum 0
field sqrsum 0
field min nan
field max nan
statistic Basic.rack[2].eps.queue[2] 	dropsum
field count 0
field mean nan
field stddev nan
field sum 0
field sqrsum 0
field min nan
field max nan
statistic Basic.rack[2].eps.queue[3] 	dropsum
field count 0
field mean nan
field stddev nan
field sum 0
field sqrsum 0
field min nan
field max nan
statistic Basic.rack[3].node[0].app 	throughput
field count 99864
field mean 49932.5
field stddev 28828.397978382
field sum 4986459180
field sqrsum 3.3198016852074e+014
field min 1
field max 99864
statistic Basic.rack[3].node[0].app 	"End-to-End Delay"
field count 99864
field mean 9.6167326447539e-006
field stddev 1.1572055019707e-005
field sum 0.96036538883571
field sqrsum 2.2608476916959e-005
field min 4e-007
field max 0.000112064934
statistic Basic.rack[3].node[0].app 	hops
field count 99864
field mean 3.2513818793559
field stddev 0.82904445849719
field sum 324696
field sqrsum 1124348
field min 2
field max 4
statistic Basic.rack[3].node[1].app 	throughput
field count 100363
field mean 50182
field stddev 28972.446870547
field sum 5036416066
field sqrsum 3.3698156255999e+014
field min 1
field max 100363
statistic Basic.rack[3].node[1].app 	"End-to-End Delay"
field count 100363
field mean 9.6019063214503e-006
field stddev 1.157137195962e-005
field sum 0.96367612413972
field sqrsum 2.2691263357944e-005
field min 4e-007
field max 9.7027647e-005
statistic Basic.rack[3].node[1].app 	hops
field count 100363
field mean 3.2524834849496
field stddev 0.8297279682757
field sum 326429
field sqrsum 1130799
field min 2
field max 4
statistic Basic.rack[3].node[2].app 	throughput
field count 100495
field mean 50248
field stddev 29010.551988314
field sum 5049672760
field sqrsum 3.3831292590172e+014
field min 1
field max 100495
statistic Basic.rack[3].node[2].app 	"End-to-End Delay"
field count 100495
field mean 9.5977548690552e-006
field stddev 1.1572757560952e-005
field sum 0.9645263755657
field sqrsum 2.2716320260352e-005
field min 4e-007
field max 0.000127345331
statistic Basic.rack[3].node[2].app 	hops
field count 100495
field mean 3.2479725359471
field stddev 0.83020503279814
field sum 326405
field sqrsum 1129419
field min 2
field max 4
statistic Basic.rack[3].node[3].app 	throughput
field count 99887
field mean 49944
field stddev 28835.037506478
field sum 4988756328
field sqrsum 3.322095984754e+014
field min 1
field max 99887
statistic Basic.rack[3].node[3].app 	"End-to-End Delay"
field count 99887
field mean 9.592523827362e-006
field stddev 1.1546325525036e-005
field sum 0.95816842754371
field sqrsum 2.2507818574671e-005
field min 4e-007
field max 0.000112188133
statistic Basic.rack[3].node[3].app 	hops
field count 99887
field mean 3.2512639282389
field stddev 0.82868609305402
field sum 324759
field sqrsum 1124471
field min 2
field max 4
statistic Basic.rack[3].node[4].app 	throughput
field count 100030
field mean 50015.5
field stddev 28876.318050726
field sum 5003050465
field sqrsum 3.3363842635946e+014
field min 1
field max 100030
statistic Basic.rack[3].node[4].app 	"End-to-End Delay"
field count 100030
field mean 9.6392382399451e-006
field stddev 1.1622927668944e-005
field sum 0.96421300114171
field sqrsum 2.2807441272788e-005
field min 4e-007
field max 0.000105703414
statistic Basic.rack[3].node[4].app 	hops
field count 100030
field mean 3.2495651304609
field stddev 0.82879391890707
field sum 325054
field sqrsum 1124994
field min 2
field max 4
statistic Basic.rack[3].node[5].app 	throughput
field count 100473
field mean 50237
field stddev 29004.201135353
field sum 5047462101
field sqrsum 3.3809078893655e+014
field min 1
field max 100473
statistic Basic.rack[3].node[5].app 	"End-to-End Delay"
field count 100473
field mean 9.6015816056922e-006
field stddev 1.1588468405171e-005
field sum 0.96469970866872
field sqrsum 2.2755289082724e-005
field min 4e-007
field max 0.000108841452
statistic Basic.rack[3].node[5].app 	hops
field count 100473
field mean 3.2514108267893
field stddev 0.83064850209004
field sum 326679
field sqrsum 1131491
field min 2
field max 4
statistic Basic.rack[3].node[6].app 	throughput
field count 100048
field mean 50024.5
field stddev 28881.514203148
field sum 5004851176
field sqrsum 3.3381856858802e+014
field min 1
field max 100048
statistic Basic.rack[3].node[6].app 	"End-to-End Delay"
field count 100048
field mean 9.6318661087849e-006
field stddev 1.1542188195215e-005
field sum 0.96364894045171
field sqrsum 2.2610209842771e-005
field min 4e-007
field max 0.000108465884
statistic Basic.rack[3].node[6].app 	hops
field count 100048
field mean 3.2517191747961
field stddev 0.82713088120132
field sum 325328
field sqrsum 1126322
field min 2
field max 4
statistic Basic.rack[3].node[7].app 	throughput
field count 100529
field mean 50265
field stddev 29020.36694289
field sum 5053090185
field sqrsum 3.386564198353e+014
field min 1
field max 100529
statistic Basic.rack[3].node[7].app 	"End-to-End Delay"
field count 100529
field mean 9.6447812300005e-006
field stddev 1.159728895927e-005
field sum 0.96958021227072
field sqrsum 2.2872114627485e-005
field min 4e-007
field max 0.000121906513
statistic Basic.rack[3].node[7].app 	hops
field count 100529
field mean 3.2548418864208
field stddev 0.8270492619996
field sum 327206
field sqrsum 1133766
field min 2
field max 4
statistic Basic.rack[3].node[8].app 	throughput
field count 100227
field mean 50114
field stddev 28933.187052242
field sum 5022775878
field sqrsum 3.3561351287483e+014
field min 1
field max 100227
statistic Basic.rack[3].node[8].app 	"End-to-End Delay"
field count 100227
field mean 9.6477499807209e-006
field stddev 1.1572114263897e-005
field sum 0.96696503731771
field sqrsum 2.2750684299057e-005
field min 4e-007
field max 0.000111554396
statistic Basic.rack[3].node[8].app 	hops
field count 100227
field mean 3.254651940096
field stddev 0.82855518041751
field sum 326204
field sqrsum 1130486
field min 2
field max 4
statistic Basic.rack[3].node[9].app 	throughput
field count 99395
field mean 49698
field stddev 28693.009340256
field sum 4939732710
field sqrsum 3.2732480171787e+014
field min 1
field max 99395
statistic Basic.rack[3].node[9].app 	"End-to-End Delay"
field count 99395
field mean 9.6334107050627e-006
field stddev 1.1574751200094e-005
field sum 0.9575128570297
field sqrsum 2.2540412373154e-005
field min 4e-007
field max 0.000115955328
statistic Basic.rack[3].node[9].app 	hops
field count 99395
field mean 3.2487851501585
field stddev 0.82900248097117
field sum 322913
field sqrsum 1117383
field min 2
field max 4
statistic Basic.rack[3].eps.queue[0] 	dropsum
field count 0
field mean nan
field stddev nan
field sum 0
field sqrsum 0
field min nan
field max nan
statistic Basic.rack[3].eps.queue[1] 	dropsum
field count 0
field mean nan
field stddev nan
field sum 0
field sqrsum 0
field min nan
field max nan
statistic Basic.rack[3].eps.queue[2] 	dropsum
field count 0
field mean nan
field stddev nan
field sum 0
field sqrsum 0
field min nan
field max nan
statistic Basic.rack[3].eps.queue[3] 	dropsum
field count 0
field mean nan
field stddev nan
field sum 0
field sqrsum 0
field min nan
field max nan
statistic Basic.rack[4].node[0].app 	throughput
field count 99813
field mean 49907
field stddev 28813.675546518
field sum 4981367391
field sqrsum 3.3147180938772e+014
field min 1
field max 99813
statistic Basic.rack[4].node[0].app 	"End-to-End Delay"
field count 99813
field mean 1.3416094819895e-005
field stddev 1.160731405947e-005
field sum 1.3391006722582
field sqrsum 3.1413146368859e-005
field min 4e-007
field max 0.000114321841
statistic Basic.rack[4].node[0].app 	hops
field count 99813
field mean 2.9986274333003
field stddev 0.70482768807347
field sum 299302
field sqrsum 947080
field min 2
field max 4
statistic Basic.rack[4].node[1].app 	throughput
field count 100132
field mean 50066.5
field stddev 28905.762914455
field sum 5013258778
field sqrsum 3.3466008972539e+014
field min 1
field max 100132
statistic Basic.rack[4].node[1].app 	"End-to-End Delay"
field count 100132
field mean 1.3390095833801e-005
field stddev 1.1580091507261e-005
field sum 1.3407770760302
field sqrsum 3.1380552377494e-005
field min 4e-007
field max 0.000109914867
statistic Basic.rack[4].node[1].app 	hops
field count 100132
field mean 3.0003595254264
field stddev 0.70718083498504
field sum 300432
field sqrsum 951480
field min 2
field max 4
statistic Basic.rack[4].node[2].app 	throughput
field count 100120
field mean 50060.5
field stddev 28902.29881284
field sum 5012057260
field sqrsum 3.3453978593322e+014
field min 1
field max 100120
statistic Basic.rack[4].node[2].app 	"End-to-End Delay"
field count 100120
field mean 1.3349836468969e-005
field stddev 1.1562982230587e-005
field sum 1.3365856272732
field sqrsum 3.1229365961768e-005
field min 4e-007
field max 0.000103563015
statistic Basic.rack[4].node[2].app 	hops
field count 100120
field mean 2.9972732720735
field stddev 0.70729572175966
field sum 300087
field sqrsum 949529
field min 2
field max 4
statistic Basic.rack[4].node[3].app 	throughput
field count 99905
field mean 49953
field stddev 28840.233658901
field sum 4990554465
field sqrsum 3.323892260687e+014
field min 1
field max 99905
statistic Basic.rack[4].node[3].app 	"End-to-End Delay"
field count 99905
field mean 1.3442839923269e-005
field stddev 1.1623450330864e-005
field sum 1.3430069225342
field sqrsum 3.1551316793506e-005
field min 4e-007
field max 0.000106181336
statistic Basic.rack[4].node[3].app 	hops
field count 99905
field mean 3.000890846304
field stddev 0.70566795003902
field sum 299804
field sqrsum 949428
field min 2
field max 4
statistic Basic.rack[4].node[4].app 	throughput
field count 99847
field mean 49924
field stddev 28823.490501094
field sum 4984761628
field sqrsum 3.3181065776782e+014
field min 1
field max 99847
statistic Basic.rack[4].node[4].app 	"End-to-End Delay"
field count 99847
field mean 1.3378493931708e-005
field stddev 1.1544071661672e-005
field sum 1.3358024835992
field sqrsum 3.1177061572833e-005
field min 4e-007
field max 0.000118971266
statistic Basic.rack[4].node[4].app 	hops
field count 99847
field mean 2.9978467054594
field stddev 0.70585596880364
field sum 299326
field sqrsum 947080
field min 2
field max 4
statistic Basic.rack[4].node[5].app 	throughput
field count 99862
field mean 49931.5
field stddev 28827.820628113
field sum 4986259453
field sqrsum 3.3196022308348e+014
field min 1
field max 99862
statistic Basic.rack[4].node[5].app 	"End-to-End Delay"
field count 99862
field mean 1.3421578608672e-005
field stddev 1.1608886374012e-005
field sum 1.3403056830192
field sqrsum 3.1446909861009e-005
field min 4e-007
field max 0.000130101458
statistic Basic.rack[4].node[5].app 	hops
field count 99862
field mean 3.0013318379364
field stddev 0.70732146208783
field sum 299719
field sqrsum 949517
field min 2
field max 4
statistic Basic.rack[4].node[6].app 	throughput
field count 99949
field mean 49975
field stddev 28852.935364823
field sum 4994951275
field sqrsum 3.3282858830708e+014
field min 1
field max 99949
statistic Basic.rack[4].node[6].app 	"End-to-End Delay"
field count 99949
field mean 1.3380215315863e-005
field stddev 1.157715577367e-005
field sum 1.3373391406052
field sqrsum 3.1289969644548e-005
field min 4e-007
field max 0.000110190267
statistic Basic.rack[4].node[6].app 	hops
field count 99949
field mean 2.9996398163063
field stddev 0.7053641544627
field sum 299811
field sqrsum 949053
field min 2
field max 4
statistic Basic.rack[4].node[7].app 	throughput
field count 99864
field mean 49932.5
field stddev 28828.397978382
field sum 4986459180
field sqrsum 3.3198016852074e+014
field min 1
field max 99864
statistic Basic.rack[4].node[7].app 	"End-to-End Delay"
field count 99864
field mean 1.338325780755e-005
field stddev 1.152154591736e-005
field sum 1.3365056576932
field sqrsum 3.1143215605956e-005
field min 4e-007
field max 0.000111125951
statistic Basic.rack[4].node[7].app 	hops
field count 99864
field mean 3.0007910758632
field stddev 0.70672033119077
field sum 299671
field sqrsum 949127
field min 2
field max 4
statistic Basic.rack[4].node[8].app 	throughput
field count 99989
field mean 49995
field stddev 28864.482370207
field sum 4998950055
field sqrsum 3.3322834434962e+014
field min 1
field max 99989
statistic Basic.rack[4].node[8].app 	"End-to-End Delay"
field count 99989
field mean 1.3425729175681e-005
field stddev 1.1617687146976e-005
field sum 1.3424252345472
field sqrsum 3.1518483454275e-005
field min 4e-007
field max 0.000124587989
statistic Basic.rack[4].node[8].app 	hops
field count 99989
field mean 3.0008100891098
field stddev 0.70646247921313
field sum 300048
field sqrsum 950290
field min 2
field max 4
statistic Basic.rack[4].node[9].app 	throughput
field count 99592
field mean 49796.5
field stddev 28749.878341772
field sum 4959333028
field sqrsum 3.2927491639406e+014
field min 1
field max 99592
statistic Basic.rack[4].node[9].app 	"End-to-End Delay"
field count 99592
field mean 1.3359265319074e-005
field stddev 1.1538109007673e-005
field sum 1.3304759516572
field sqrsum 3.1032527850706e-005
field min 4e-007
field max 0.000105781807
statistic Basic.rack[4].node[9].app 	hops
field count 99592
field mean 3.0003815567515
field stddev 0.7066130484142
field sum 298814
field sqrsum 946282
field min 2
field max 4
statistic Basic.rack[4].eps.queue[0] 	dropsum
field count 0
field mean nan
field stddev nan
field sum 0
field sqrsum 0
field min nan
field max nan
statistic Basic.rack[4].eps.queue[1] 	dropsum
field count 0
field mean nan
field stddev nan
field sum 0
field sqrsum 0
field min nan
field max nan
statistic Basic.rack[4].eps.queue[2] 	dropsum
field count 0
field mean nan
field stddev nan
field sum 0
field sqrsum 0
field min nan
field max nan
statistic Basic.rack[4].eps.queue[3] 	dropsum
field count 0
field mean nan
field stddev nan
field sum 0
field sqrsum 0
field min nan
field max nan
statistic Basic.rack[5].node[0].app 	throughput
field count 99691
field mean 49846
field stddev 28778.457180097
field sum 4969197586
field sqrsum 3.3025784076315e+014
field min 1
field max 99691
statistic Basic.rack[5].node[0].app 	"End-to-End Delay"
field count 99691
field mean 1.3453624514552e-005
field stddev 1.1658033147798e-005
field sum 1.3412052814802
field sqrsum 3.1592913923054e-005
field min 4e-007
field max 0.000124829542
statistic Basic.rack[5].node[0].app 	hops
field count 99691
field mean 3.0015046493665
field stddev 0.7064736148138
field sum 299223
field sqrsum 947875
field min 2
field max 4
statistic Basic.rack[5].node[1].app 	throughput
field count 100307
field mean 50154
field stddev 28956.281063009
field sum 5030797278
field sqrsum 3.3641779864199e+014
field min 1
field max 100307
statistic Basic.rack[5].node[1].app 	"End-to-End Delay"
field count 100307
field mean 1.351761937185e-005
field stddev 1.1744653267287e-005
field sum 1.3559118463322
field sqrsum 3.2164596962774e-005
field min 4e-007
field max 0.000129388407
statistic Basic.rack[5].node[1].app 	hops
field count 100307
field mean 3.003788369705
field stddev 0.70739970054133
field sum 301301
field sqrsum 955239
field min 2
field max 4
statistic Basic.rack[5].node[2].app 	throughput
field count 99746
field mean 49873.5
field stddev 28794.3343125
field sum 4974682131
field sqrsum 3.3080475411986e+014
field min 1
field max 99746
statistic Basic.rack[5].node[2].app 	"End-to-End Delay"
field count 99746
field mean 1.3355494440992e-005
field stddev 1.1648618260439e-005
field sum 1.3321571485112
field sqrsum 3.132604710083e-005
field min 4e-007
field max 0.00012142054
statistic Basic.rack[5].node[2].app 	hops
field count 99746
field mean 2.9969121568785
field stddev 0.70756423005215
field sum 298930
field sqrsum 945804
field min 2
field max 4
statistic Basic.rack[5].node[3].app 	throughput
field count 99892
field mean 49946.5
field stddev 28836.480882151
field sum 4989255778
field sqrsum 3.3225948853591e+014
field min 1
field max 99892
statistic Basic.rack[5].node[3].app 	"End-to-End Delay"
field count 99892
field mean 1.3418861715225e-005
field stddev 1.1657039137346e-005
field sum 1.3404369344572
field sqrsum 3.1560982371225e-005
field min 4e-007
field max 0.000114424232
statistic Basic.rack[5].node[3].app 	hops
field count 99892
field mean 3.0001101189284
field stddev 0.70793804108922
field sum 299687
field sqrsum 949157
field min 2
field max 4
statistic Basic.rack[5].node[4].app 	throughput
field count 100422
field mean 50211.5
field stddev 28989.478703488
field sum 5042339253
field sqrsum 3.375762090896e+014
field min 1
field max 100422
statistic Basic.rack[5].node[4].app 	"End-to-End Delay"
field count 100422
field mean 1.3409212413059e-005
field stddev 1.1657016677404e-005
field sum 1.3465799289442
field sqrsum 3.1702388102023e-005
field min 4e-007
field max 0.000130807429
statistic Basic.rack[5].node[4].app 	hops
field count 100422
field mean 2.998635757105
field stddev 0.70609429600113
field sum 301129
field sqrsum 953043
field min 2
field max 4
statistic Basic.rack[5].node[5].app 	throughput
field count 99638
field mean 49819.5
field stddev 28763.157397963
field sum 4963915341
field sqrsum 3.2973138580282e+014
field min 1
field max 99638
statistic Basic.rack[5].node[5].app 	"End-to-End Delay"
field count 99638
field mean 1.3390404694326e-005
field stddev 1.1721726328573e-005
field sum 1.3341931429332
field sqrsum 3.1555397147338e-005
field min 4e-007
field max 0.00013524538
statistic Basic.rack[5].node[5].app 	hops
field count 99638
field mean 2.9978923703808
field stddev 0.7082346848302
field sum 298704
field sqrsum 945460
field min 2
field max 4
statistic Basic.rack[5].node[6].app 	throughput
field count 99723
field mean 49862
field stddev 28787.694784404
field sum 4972388226
field sqrsum 3.3057597150367e+014
field min 1
field max 99723
statistic Basic.rack[5].node[6].app 	"End-to-End Delay"
field count 99723
field mean 1.3464139726785e-005
field stddev 1.1685579424804e-005
field sum 1.3426844059742
field sqrsum 3.1695405431268e-005
field min 4e-007
field max 0.000105720291
statistic Basic.rack[5].node[6].app 	hops
field count 99723
field mean 3.0015342498721
field stddev 0.71026057149364
field sum 299322
field sqrsum 948732
field min 2
field max 4
statistic Basic.rack[5].node[7].app 	throughput
field count 100335
field mean 50168
field stddev 28964.363966778
field sum 5033606280
field sqrsum 3.3669960193796e+014
field min 1
field max 100335
statistic Basic.rack[5].node[7].app 	"End-to-End Delay"
field count 100335
field mean 1.3450529392776e-005
field stddev 1.1663062949713e-005
field sum 1.3495588666242
field sqrsum 3.1800417970188e-005
field min 4e-007
field max 0.000129816079
statistic Basic.rack[5].node[7].app 	hops
field count 100335
field mean 3.0019434893108
field stddev 0.70639900317964
field sum 301200
field sqrsum 954252
field min 2
field max 4
statistic Basic.rack[5].node[8].app 	throughput
field count 99785
field mean 49893
field stddev 28805.592642749
field sum 4978573005
field sqrsum 3.3119293106028e+014
field min 1
field max 99785
statistic Basic.rack[5].node[8].app 	"End-to-End Delay"
field count 99785
field mean 1.3391718499857e-005
field stddev 1.1610966280764e-005
field sum 1.3362926305082
field sqrsum 3.13475885983e-005
field min 4e-007
field max 0.000117000807
statistic Basic.rack[5].node[8].app 	hops
field count 99785
field mean 2.9964924587864
field stddev 0.70538107326193
field sum 299005
field sqrsum 945615
field min 2
field max 4
statistic Basic.rack[5].node[9].app 	throughput
field count 100612
field mean 50306.5
field stddev 29044.326979062
field sum 5061437578
field sqrsum 3.3949592554435e+014
field min 1
field max 100612
statistic Basic.rack[5].node[9].app 	"End-to-End Delay"
field count 100612
field mean 1.3443822361996e-005
field stddev 1.1701071671596e-005
field sum 1.3526098554852
field sqrsum 3.195940956143e-005
field min 4e-007
field max 0.000110912584
statistic Basic.rack[5].node[9].app 	hops
field count 100612
field mean 2.9986283942273
field stddev 0.7080079907807
field sum 301698
field sqrsum 955114
field min 2
field max 4
statistic Basic.rack[5].eps.queue[0] 	dropsum
field count 0
field mean nan
field stddev nan
field sum 0
field sqrsum 0
field min nan
field max nan
statistic Basic.rack[5].eps.queue[1] 	dropsum
field count 0
field mean nan
field stddev nan
field sum 0
field sqrsum 0
field min nan
field max nan
statistic Basic.rack[5].eps.queue[2] 	dropsum
field count 0
field mean nan
field stddev nan
field sum 0
field sqrsum 0
field min nan
field max nan
statistic Basic.rack[5].eps.queue[3] 	dropsum
field count 0
field mean nan
field stddev nan
field sum 0
field sqrsum 0
field min nan
field max nan
statistic Basic.rack[6].node[0].app 	throughput
field count 99864
field mean 49932.5
field stddev 28828.397978382
field sum 4986459180
field sqrsum 3.3198016852074e+014
field min 1
field max 99864
statistic Basic.rack[6].node[0].app 	"End-to-End Delay"
field count 99864
field mean 9.6566107141482e-006
field stddev 1.1620746187387e-005
field sum 0.9643477723577
field sqrsum 2.2798004507235e-005
field min 4e-007
field max 0.000121508132
statistic Basic.rack[6].node[0].app 	hops
field count 99864
field mean 3.2556376672274
field stddev 0.82882409507984
field sum 325121
field sqrsum 1127077
field min 2
field max 4
statistic Basic.rack[6].node[1].app 	throughput
field count 100191
field mean 50096
field stddev 28922.794747396
field sum 5019168336
field sqrsum 3.352520028909e+014
field min 1
field max 100191
statistic Basic.rack[6].node[1].app 	"End-to-End Delay"
field count 100191
field mean 9.6492666137648e-006
field stddev 1.159414446623e-005
field sum 0.96676967129971
field sqrsum 2.2796577498175e-005
field min 4e-007
field max 0.000111446502
statistic Basic.rack[6].node[1].app 	hops
field count 100191
field mean 3.2469283668194
field stddev 0.82995250577451
field sum 325313
field sqrsum 1125281
field min 2
field max 4
statistic Basic.rack[6].node[2].app 	throughput
field count 99638
field mean 49819.5
field stddev 28763.157397963
field sum 4963915341
field sqrsum 3.2973138580282e+014
field min 1
field max 99638
statistic Basic.rack[6].node[2].app 	"End-to-End Delay"
field count 99638
field mean 9.6055970319628e-006
field stddev 1.1537508248984e-005
field sum 0.95708247707071
field sqrsum 2.2456437843567e-005
field min 4e-007
field max 0.00011093933
statistic Basic.rack[6].node[2].app 	hops
field count 99638
field mean 3.2527047913447
field stddev 0.82799159414673
field sum 324093
field sqrsum 1122487
field min 2
field max 4
statistic Basic.rack[6].node[3].app 	throughput
field count 99758
field mean 49879.5
field stddev 28797.798414115
field sum 4975879161
field sqrsum 3.3092416085508e+014
field min 1
field max 99758
statistic Basic.rack[6].node[3].app 	"End-to-End Delay"
field count 99758
field mean 9.5973838165433e-006
field stddev 1.1630658795837e-005
field sum 0.95741581477072
field sqrsum 2.2683038298464e-005
field min 4e-007
field max 0.000119259273
statistic Basic.rack[6].node[3].app 	hops
field count 99758
field mean 3.2450329798111
field stddev 0.83124194969924
field sum 323718
field sqrsum 1119404
field min 2
field max 4
statistic Basic.rack[6].node[4].app 	throughput
field count 99965
field mean 49983
field stddev 28857.554166977
field sum 4996550595
field sqrsum 3.3298845233632e+014
field min 1
field max 99965
statistic Basic.rack[6].node[4].app 	"End-to-End Delay"
field count 99965
field mean 9.681202962554e-006
field stddev 1.1592403948864e-005
field sum 0.96778145415171
field sqrsum 2.2802833794548e-005
field min 4e-007
field max 0.000110744882
statistic Basic.rack[6].node[4].app 	hops
field count 99965
field mean 3.2519581853649
field stddev 0.82795898306625
field sum 325082
field sqrsum 1125680
field min 2
field max 4
statistic Basic.rack[6].node[5].app 	throughput
field count 99523
field mean 49762
field stddev 28729.959757484
field sum 4952463526
field sqrsum 3.2859100248657e+014
field min 1
field max 99523
statistic Basic.rack[6].node[5].app 	"End-to-End Delay"
field count 99523
field mean 9.5743602965818e-006
field stddev 1.1578353480166e-005
field sum 0.95286905979671
field sqrsum 2.2464858772395e-005
field min 4e-007
field max 0.00011562227
statistic Basic.rack[6].node[5].app 	hops
field count 99523
field mean 3.249821649267
field stddev 0.82903687952244
field sum 323432
field sqrsum 1119498
field min 2
field max 4
statistic Basic.rack[6].node[6].app 	throughput
field count 100514
field mean 50257.5
field stddev 29016.036815871
field sum 5051582355
field sqrsum 3.3850484974776e+014
field min 1
field max 100514
statistic Basic.rack[6].node[6].app 	"End-to-End Delay"
field count 100514
field mean 9.6458983155453e-006
field stddev 1.1552007904073e-005
field sum 0.96954782328872
field sqrsum 2.2765507655912e-005
field min 4e-007
field max 0.000112332357
statistic Basic.rack[6].node[6].app 	hops
field count 100514
field mean 3.2508904232246
field stddev 0.82796960413283
field sum 326760
field sqrsum 1131166
field min 2
field max 4
statistic Basic.rack[6].node[7].app 	throughput
field count 100274
field mean 50137.5
field stddev 28946.754783568
field sum 5027487675
field sqrsum 3.3608587524452e+014
field min 1
field max 100274
statistic Basic.rack[6].node[7].app 	"End-to-End Delay"
field count 100274
field mean 9.6175393828082e-006
field stddev 1.1593193500104e-005
field sum 0.96438914407171
field sqrsum 2.2751955909548e-005
field min 4e-007
field max 0.000123275513
statistic Basic.rack[6].node[7].app 	hops
field count 100274
field mean 3.2446795779564
field stddev 0.83143889859416
field sum 325357
field sqrsum 1124997
field min 2
field max 4
statistic Basic.rack[6].node[8].app 	throughput
field count 99655
field mean 49828
field stddev 28768.064875251
field sum 4965609340
field sqrsum 3.2990018772158e+014
field min 1
field max 99655
statistic Basic.rack[6].node[8].app 	"End-to-End Delay"
field count 99655
field mean 9.6085524430055e-006
field stddev 1.1576726823769e-005
field sum 0.95754029370772
field sqrsum 2.2556265394632e-005
field min 4e-007
field max 0.000101356952
statistic Basic.rack[6].node[8].app 	hops
field count 99655
field mean 3.2527218905223
field stddev 0.82928976135645
field sum 324150
field sqrsum 1122904
field min 2
field max 4
statistic Basic.rack[6].node[9].app 	throughput
field count 100093
field mean 50047
field stddev 28894.504584205
field sum 5009354371
field sqrsum 3.3426920782246e+014
field min 1
field max 100093
statistic Basic.rack[6].node[9].app 	"End-to-End Delay"
field count 100093
field mean 9.6245619793262e-006
field stddev 1.1610315740165e-005
field sum 0.9633512821967
field sqrsum 2.2764178829705e-005
field min 4e-007
field max 0.00010505134
statistic Basic.rack[6].node[9].app 	hops
field count 100093
field mean 3.2522354210584
field stddev 0.83006881049323
field sum 325526
field sqrsum 1127652
field min 2
field max 4
statistic Basic.rack[6].eps.queue[0] 	dropsum
field count 0
field mean nan
field stddev nan
field sum 0
field sqrsum 0
field min nan
field max nan
statistic Basic.rack[6].eps.queue[1] 	dropsum
field count 0
field mean nan
field stddev nan
field sum 0
field sqrsum 0
field min nan
field max nan
statistic Basic.rack[6].eps.queue[2] 	dropsum
field count 0
field mean nan
field stddev nan
field sum 0
field sqrsum 0
field min nan
field max nan
statistic Basic.rack[6].eps.queue[3] 	dropsum
field count 0
field mean nan
field stddev nan
field sum 0
field sqrsum 0
field min nan
field max nan
statistic Basic.rack[7].node[0].app 	throughput
field count 100247
field mean 50124
field stddev 28938.960554934
field sum 5024780628
field sqrsum 3.3581446400362e+014
field min 1
field max 100247
statistic Basic.rack[7].node[0].app 	"End-to-End Delay"
field count 100247
field mean 9.6248112026367e-006
field stddev 1.1610343540941e-005
field sum 0.96485844863072
field sqrsum 2.2799748938182e-005
field min 4e-007
field max 0.000134304996
statistic Basic.rack[7].node[0].app 	hops
field count 100247
field mean 3.2559178828294
field stddev 0.82843584815725
field sum 326396
field sqrsum 1131518
field min 2
field max 4
statistic Basic.rack[7].node[1].app 	throughput
field count 99833
field mean 49917
field stddev 28819.44904921
field sum 4983363861
field sqrsum 3.3167110401143e+014
field min 1
field max 99833
statistic Basic.rack[7].node[1].app 	"End-to-End Delay"
field count 99833
field mean 9.6026991719944e-006
field stddev 1.1570868773284e-005
field sum 0.95866626643772
field sqrsum 2.2571791499096e-005
field min 4e-007
field max 0.00011844882
statistic Basic.rack[7].node[1].app 	hops
field count 99833
field mean 3.2482445684293
field stddev 0.8300753645256
field sum 324282
field sqrsum 1122134
field min 2
field max 4
statistic Basic.rack[7].node[2].app 	throughput
field count 99822
field mean 49911.5
field stddev 28816.273622729
field sum 4982265753
field sqrsum 3.315614820859e+014
field min 1
field max 99822
statistic Basic.rack[7].node[2].app 	"End-to-End Delay"
field count 99822
field mean 9.679287475804e-006
field stddev 1.1684510827145e-005
field sum 0.9662058344097
field sqrsum 2.2980524884021e-005
field min 4e-007
field max 0.000129659194
statistic Basic.rack[7].node[2].app 	hops
field count 99822
field mean 3.2473302478412
field stddev 0.83054282224335
field sum 324155
field sqrsum 1121495
field min 2
field max 4
statistic Basic.rack[7].node[3].app 	throughput
field count 100366
field mean 50183.5
field stddev 28973.312895951
field sum 5036717161
field sqrsum 3.3701178195967e+014
field min 1
field max 100366
statistic Basic.rack[7].node[3].app 	"End-to-End Delay"
field count 100366
field mean 9.6942804790937e-006
field stddev 1.1624069793542e-005
field sum 0.97297615456472
field sqrsum 2.2993522032811e-005
field min 4e-007
field max 0.000120026853
statistic Basic.rack[7].node[3].app 	hops
field count 100366
field mean 3.2534722914134
field stddev 0.82845128942338
field sum 326538
field sqrsum 1131266
field min 2
field max 4
statistic Basic.rack[7].node[4].app 	throughput
field count 99591
field mean 49796
field stddev 28749.589666637
field sum 4959233436
field sqrsum 3.292649978276e+014
field min 1
field max 99591
statistic Basic.rack[7].node[4].app 	"End-to-End Delay"
field count 99591
field mean 9.6612798300822e-006
field stddev 1.1642756211755e-005
field sum 0.96217651955771
field sqrsum 2.2795656775412e-005
field min 4e-007
field max 0.00012753184
statistic Basic.rack[7].node[4].app 	hops
field count 99591
field mean 3.2526533522105
field stddev 0.82907512465536
field sum 323935
field sqrsum 1122103
field min 2
field max 4
statistic Basic.rack[7].node[5].app 	throughput
field count 99928
field mean 49964.5
field stddev 28846.873186997
field sum 4992852556
field sqrsum 3.3261884442816e+014
field min 1
field max 99928
statistic Basic.rack[7].node[5].app 	"End-to-End Delay"
field count 99928
field mean 9.6408700326806e-006
field stddev 1.1618931114693e-005
field sum 0.96339286062571
field sqrsum 2.2778046416606e-005
field min 4e-007
field max 0.000127782306
statistic Basic.rack[7].node[5].app 	hops
field count 99928
field mean 3.2474381554719
field stddev 0.83014547820484
field sum 324510
field sqrsum 1122690
field min 2
field max 4
statistic Basic.rack[7].node[6].app 	throughput
field count 100320
field mean 50160.5
field stddev 28960.033839759
field sum 5032101360
field sqrsum 3.3654861632392e+014
field min 1
field max 100320
statistic Basic.rack[7].node[6].app 	"End-to-End Delay"
field count 100320
field mean 9.6700826149694e-006
field stddev 1.1604977674972e-005
field sum 0.97010268793373
field sqrsum 2.2891485307665e-005
field min 4e-007
field max 0.00015402321
statistic Basic.rack[7].node[6].app 	hops
field count 100320
field mean 3.2492125199362
field stddev 0.83006412241693
field sum 325961
field sqrsum 1128237
field min 2
field max 4
statistic Basic.rack[7].node[7].app 	throughput
field count 99614
field mean 49807.5
field stddev 28756.229194733
field sum 4961524305
field sqrsum 3.2949317525362e+014
field min 1
field max 99614
statistic Basic.rack[7].node[7].app 	"End-to-End Delay"
field count 99614
field mean 9.5816564455067e-006
field stddev 1.1553618947402e-005
field sum 0.95446712516271
field sqrsum 2.2442328035144e-005
field min 4e-007
field max 0.000149788055
statistic Basic.rack[7].node[7].app 	hops
field count 99614
field mean 3.2470837432489
field stddev 0.82962576966098
field sum 323455
field sqrsum 1118847
field min 2
field max 4
statistic Basic.rack[7].node[8].app 	throughput
field count 99753
field mean 49877
field stddev 28796.355038442
field sum 4975380381
field sqrsum 3.3087440455739e+014
field min 1
field max 99753
statistic Basic.rack[7].node[8].app 	"End-to-End Delay"
field count 99753
field mean 9.6528304976663e-006
field stddev 1.162243353141e-005
field sum 0.9628988006337
field sqrsum 2.2769294949752e-005
field min 4e-007
field max 0.000146330728
statistic Basic.rack[7].node[8].app 	hops
field count 99753
field mean 3.2510701432538
field stddev 0.82922540195344
field sum 324304
field sqrsum 1122926
field min 2
field max 4
statistic Basic.rack[7].node[9].app 	throughput
field count 99822
field mean 49911.5
field stddev 28816.273622729
field sum 4982265753
field sqrsum 3.315614820859e+014
field min 1
field max 99822
statistic Basic.rack[7].node[9].app 	"End-to-End Delay"
field count 99822
field mean 9.6146019020227e-006
field stddev 1.153391665888e-005
field sum 0.95974879106371
field sqrsum 2.2506913310628e-005
field min 4e-007
field max 0.000113857629
statistic Basic.rack[7].node[9].app 	hops
field count 99822
field mean 3.2517581294705
field stddev 0.82822008688502
field sum 324597
field sqrsum 1123983
field min 2
field max 4
statistic Basic.rack[7].eps.queue[0] 	dropsum
field count 0
field mean nan
field stddev nan
field sum 0
field sqrsum 0
field min nan
field max nan
statistic Basic.rack[7].eps.queue[1] 	dropsum
field count 0
field mean nan
field stddev nan
field sum 0
field sqrsum 0
field min nan
field max nan
statistic Basic.rack[7].eps.queue[2] 	dropsum
field count 0
field mean nan
field stddev nan
field sum 0
field sqrsum 0
field min nan
field max nan
statistic Basic.rack[7].eps.queue[3] 	dropsum
field count 0
field mean nan
field stddev nan
field sum 0
field sqrsum 0
field min nan
field max nan
statistic Basic.rack[8].node[0].app 	throughput
field count 100024
field mean 50012.5
field stddev 28874.585999918
field sum 5002450300
field sqrsum 3.335783933549e+014
field min 1
field max 100024
statistic Basic.rack[8].node[0].app 	"End-to-End Delay"
field count 100024
field mean 1.3395803600638e-005
field stddev 1.16461340133e-005
field sum 1.3399018593502
field sqrsum 3.151542544362e-005
field min 4e-007
field max 0.000118223992
statistic Basic.rack[8].node[0].app 	hops
field count 100024
field mean 2.9973506358474
field stddev 0.70702758428781
field sum 299807
field sqrsum 948627
field min 2
field max 4
statistic Basic.rack[8].node[1].app 	throughput
field count 99521
field mean 49761
field stddev 28729.382407215
field sum 4952264481
field sqrsum 3.2857119303056e+014
field min 1
field max 99521
statistic Basic.rack[8].node[1].app 	"End-to-End Delay"
field count 99521
field mean 1.346788131896e-005
field stddev 1.1817845889623e-005
field sum 1.3403370167442
field sqrsum 3.19506105049e-005
field min 4e-007
field max 0.000154048135
statistic Basic.rack[8].node[1].app 	hops
field count 99521
field mean 2.9979300851077
field stddev 0.70991183613724
field sum 298357
field sqrsum 944609
field min 2
field max 4
statistic Basic.rack[8].node[2].app 	throughput
field count 100118
field mean 50059.5
field stddev 28901.72146257
field sum 5011857021
field sqrsum 3.3451973810466e+014
field min 1
field max 100118
statistic Basic.rack[8].node[2].app 	"End-to-End Delay"
field count 100118
field mean 1.3455572734365e-005
field stddev 1.1702771890042e-005
field sum 1.3471450310192
field sqrsum 3.1838118659434e-005
field min 4e-007
field max 0.00014988762
statistic Basic.rack[8].node[2].app 	hops
field count 100118
field mean 3.0010287860325
field stddev 0.70756143748839
field sum 300457
field sqrsum 951803
field min 2
field max 4
statistic Basic.rack[8].node[3].app 	throughput
field count 100126
field mean 50063.5
field stddev 28904.030863647
field sum 5012658001
field sqrsum 3.3459993422475e+014
field min 1
field max 100126
statistic Basic.rack[8].node[3].app 	"End-to-End Delay"
field count 100126
field mean 1.3437706624775e-005
field stddev 1.1693726526325e-005
field sum 1.3454638135122
field sqrsum 3.1771364912484e-005
field min 4e-007
field max 0.000168353428
statistic Basic.rack[8].node[3].app 	hops
field count 100126
field mean 2.9988614345924
field stddev 0.70582997746559
field sum 300264
field sqrsum 950332
field min 2
field max 4
statistic Basic.rack[8].node[4].app 	throughput
field count 100132
field mean 50066.5
field stddev 28905.762914455
field sum 5013258778
field sqrsum 3.3466008972539e+014
field min 1
field max 100132
statistic Basic.rack[8].node[4].app 	"End-to-End Delay"
field count 100132
field mean 1.3415974011427e-005
field stddev 1.172136436061e-005
field sum 1.3433683097122
field sqrsum 3.1779630718396e-005
field min 4e-007
field max 0.000118092349
statistic Basic.rack[8].node[4].app 	hops
field count 100132
field mean 2.9964446930052
field stddev 0.70667753473292
field sum 300040
field sqrsum 949058
field min 2
field max 4
statistic Basic.rack[8].node[5].app 	throughput
field count 100002
field mean 50001.5
field stddev 28868.235146957
field sum 5000250003
field sqrsum 3.3335833395e+014
field min 1
field max 100002
statistic Basic.rack[8].node[5].app 	"End-to-End Delay"
field count 100002
field mean 1.346720211051e-005
field stddev 1.1763271449518e-005
field sum 1.3467471454552
field sqrsum 3.1974509893656e-005
field min 4e-007
field max 0.000139572011
statistic Basic.rack[8].node[5].app 	hops
field count 100002
field mean 3.0001599968001
field stddev 0.70819132940959
field sum 300022
field sqrsum 950268
field min 2
field max 4
statistic Basic.rack[8].node[6].app 	throughput
field count 100025
field mean 50013
field stddev 28874.874675053
field sum 5002550325
field sqrsum 3.3358839835552e+014
field min 1
field max 100025
statistic Basic.rack[8].node[6].app 	"End-to-End Delay"
field count 100025
field mean 1.3468656227855e-005
field stddev 1.172287293869e-005
field sum 1.3472023391912
field sqrsum 3.1890878387594e-005
field min 4e-007
field max 0.000113856254
statistic Basic.rack[8].node[6].app 	hops
field count 100025
field mean 3.0009397650587
field stddev 0.7075160617726
field sum 300169
field sqrsum 950859
field min 2
field max 4
statistic Basic.rack[8].node[7].app 	throughput
field count 100300
field mean 50150.5
field stddev 28954.260337067
field sum 5030095150
field sqrsum 3.3634737239505e+014
field min 1
field max 100300
statistic Basic.rack[8].node[7].app 	"End-to-End Delay"
field count 100300
field mean 1.3433434518197e-005
field stddev 1.1722288486013e-005
field sum 1.3473734821752
field sqrsum 3.1882144381444e-005
field min 4e-007
field max 0.000145038782
statistic Basic.rack[8].node[7].app 	hops
field count 100300
field mean 2.9993120638086
field stddev 0.70842708672226
field sum 300831
field sqrsum 952623
field min 2
field max 4
statistic Basic.rack[8].node[8].app 	throughput
field count 100003
field mean 50002
field stddev 28868.523822092
field sum 5000350006
field sqrsum 3.3336833455001e+014
field min 1
field max 100003
statistic Basic.rack[8].node[8].app 	"End-to-End Delay"
field count 100003
field mean 1.3425369229045e-005
field stddev 1.1706203420518e-005
field sum 1.3425771990122
field sqrsum 3.1728388537888e-005
field min 4e-007
field max 0.000104761657
statistic Basic.rack[8].node[8].app 	hops
field count 100003
field mean 2.9985800425987
field stddev 0.70786154175887
field sum 299867
field sqrsum 949283
field min 2
field max 4
statistic Basic.rack[8].node[9].app 	throughput
field count 100134
field mean 50067.5
field stddev 28906.340264724
field sum 5013459045
field sqrsum 3.3468014316104e+014
field min 1
field max 100134
statistic Basic.rack[8].node[9].app 	"End-to-End Delay"
field count 100134
field mean 1.3420289304404e-005
field stddev 1.1766245671159e-005
field sum 1.3438272492072
field sqrsum 3.1897417302356e-005
field min 4e-007
field max 0.000123145285
statistic Basic.rack[8].node[9].app 	hops
field count 100134
field mean 2.9959853795913
field stddev 0.70799519007149
field sum 300000
field sqrsum 948988
field min 2
field max 4
statistic Basic.rack[8].eps.queue[0] 	dropsum
field count 0
field mean nan
field stddev nan
field sum 0
field sqrsum 0
field min nan
field max nan
statistic Basic.rack[8].eps.queue[1] 	dropsum
field count 0
field mean nan
field stddev nan
field sum 0
field sqrsum 0
field min nan
field max nan
statistic Basic.rack[8].eps.queue[2] 	dropsum
field count 0
field mean nan
field stddev nan
field sum 0
field sqrsum 0
field min nan
field max nan
statistic Basic.rack[8].eps.queue[3] 	dropsum
field count 0
field mean nan
field stddev nan
field sum 0
field sqrsum 0
field min nan
field max nan
statistic Basic.rack[9].node[0].app 	throughput
field count 100142
field mean 50071.5
field stddev 28908.649665801
field sum 5014260153
field sqrsum 3.3476036491454e+014
field min 1
field max 100142
statistic Basic.rack[9].node[0].app 	"End-to-End Delay"
field count 100142
field mean 1.3438335956014e-005
field stddev 1.1658825199855e-005
field sum 1.3457418393072
field sqrsum 3.1696517327664e-005
field min 4e-007
field max 0.000122597202
statistic Basic.rack[9].node[0].app 	hops
field count 100142
field mean 3.001108426035
field stddev 0.70798447610181
field sum 300537
field sqrsum 952139
field min 2
field max 4
statistic Basic.rack[9].node[1].app 	throughput
field count 99956
field mean 49978.5
field stddev 28854.956090765
field sum 4995650946
field sqrsum 3.3289852252257e+014
field min 1
field max 99956
statistic Basic.rack[9].node[1].app 	"End-to-End Delay"
field count 99956
field mean 1.3475440316321e-005
field stddev 1.1731802515282e-005
field sum 1.3469511122582
field sqrsum 3.1908084764434e-005
field min 4e-007
field max 0.000156222173
statistic Basic.rack[9].node[1].app 	hops
field count 99956
field mean 3.001270559046
field stddev 0.70684738192881
field sum 299995
field sqrsum 950307
field min 2
field max 4
statistic Basic.rack[9].node[2].app 	throughput
field count 99975
field mean 49988
field stddev 28860.440918323
field sum 4997550300
field sqrsum 3.330883933451e+014
field min 1
field max 99975
statistic Basic.rack[9].node[2].app 	"End-to-End Delay"
field count 99975
field mean 1.3377479196671e-005
field stddev 1.1635755359759e-005
field sum 1.3374134826872
field sqrsum 3.1426781160338e-005
field min 4e-007
field max 0.0001182714
statistic Basic.rack[9].node[2].app 	hops
field count 99975
field mean 2.9974193548387
field stddev 0.70692522602255
field sum 299667
field sqrsum 948189
field min 2
field max 4
statistic Basic.rack[9].node[3].app 	throughput
field count 99987
field mean 49994
field stddev 28863.905019938
field sum 4998750078
field sqrsum 3.3320834894935e+014
field min 1
field max 99987
statistic Basic.rack[9].node[3].app 	"End-to-End Delay"
field count 99987
field mean 1.3475720783024e-005
field stddev 1.16747509864e-005
field sum 1.3473968939322
field sqrsum 3.1785217188639e-005
field min 4e-007
field max 0.000142017417
statistic Basic.rack[9].node[3].app 	hops
field count 99987
field mean 3.0008801144149
field stddev 0.70671716293018
field sum 300049
field sqrsum 950349
field min 2
field max 4
statistic Basic.rack[9].node[4].app 	throughput
field count 99957
field mean 49979
field stddev 28855.2447659
field sum 4995750903
field sqrsum 3.3290851392442e+014
field min 1
field max 99957
statistic Basic.rack[9].node[4].app 	"End-to-End Delay"
field count 99957
field mean 1.3382394604032e-005
field stddev 1.1723254981072e-005
field sum 1.3376640174352
field sqrsum 3.1638571336931e-005
field min 4e-007
field max 0.000145432187
statistic Basic.rack[9].node[4].app 	hops
field count 99957
field mean 2.9964084556359
field stddev 0.70826395291559
field sum 299512
field sqrsum 947602
field min 2
field max 4
statistic Basic.rack[9].node[5].app 	throughput
field count 100232
field mean 50116.5
field stddev 28934.630427915
field sum 5023277028
field sqrsum 3.3566374313934e+014
field min 1
field max 100232
statistic Basic.rack[9].node[5].app 	"End-to-End Delay"
field count 100232
field mean 1.3510030497228e-005
field stddev 1.1726230987654e-005
field sum 1.3541373767982
field sqrsum 3.2076650113486e-005
field min 4e-007
field max 0.000131596667
statistic Basic.rack[9].node[5].app 	hops
field count 100232
field mean 3.0036914358688
field stddev 0.70790446693818
field sum 301066
field sqrsum 954538
field min 2
field max 4
statistic Basic.rack[9].node[6].app 	throughput
field count 100180
field mean 50090.5
field stddev 28919.619320915
field sum 5018066290
field sqrsum 3.3514159331023e+014
field min 1
field max 100180
statistic Basic.rack[9].node[6].app 	"End-to-End Delay"
field count 100180
field mean 1.3376724453476e-005
field stddev 1.169359196668e-005
field sum 1.3400802557492
field sqrsum 3.1624370111682e-005
field min 4e-007
field max 0.000136731619
statistic Basic.rack[9].node[6].app 	hops
field count 100180
field mean 2.9939009782392
field stddev 0.7083463801371
field sum 299929
field sqrsum 948223
field min 2
field max 4
statistic Basic.rack[9].node[7].app 	throughput
field count 99903
field mean 49952
field stddev 28839.656308632
field sum 4990354656
field sqrsum 3.3236926425046e+014
field min 1
field max 99903
statistic Basic.rack[9].node[7].app 	"End-to-End Delay"
field count 99903
field mean 1.3496373134973e-005
field stddev 1.1731072729585e-005
field sum 1.3483281653032
field sqrsum 3.1945860195401e-005
field min 4e-007
field max 0.000147156917
statistic Basic.rack[9].node[7].app 	hops
field count 99903
field mean 3.0030829905008
field stddev 0.70808322859018
field sum 300017
field sqrsum 951065
field min 2
field max 4
statistic Basic.rack[9].node[8].app 	throughput
field count 100248
field mean 50124.5
field stddev 28939.249230068
field sum 5024880876
field sqrsum 3.3582451366512e+014
field min 1
field max 100248
statistic Basic.rack[9].node[8].app 	"End-to-End Delay"
field count 100248
field mean 1.3457856551265e-005
field stddev 1.1699973690654e-005
field sum 1.3491232035512
field sqrsum 3.1879056657511e-005
field min 4e-007
field max 0.00011432715
statistic Basic.rack[9].node[8].app 	hops
field count 100248
field mean 3.0012668581917
field stddev 0.70687636530472
field sum 300871
field sqrsum 953085
field min 2
field max 4
statistic Basic.rack[9].node[9].app 	throughput
field count 100348
field mean 50174.5
field stddev 28968.116743528
field sum 5034910726
field sqrsum 3.3683049265867e+014
field min 1
field max 100348
statistic Basic.rack[9].node[9].app 	"End-to-End Delay"
field count 100348
field mean 1.3479120213828e-005
field stddev 1.1674905836073e-005
field sum 1.3526027552172
field sqrsum 3.1909535056164e-005
field min 4e-007
field max 0.000112510416
statistic Basic.rack[9].node[9].app 	hops
field count 100348
field mean 3.0017937577231
field stddev 0.70724894733822
field sum 301224
field sqrsum 954406
field min 2
field max 4
statistic Basic.rack[9].eps.queue[0] 	dropsum
field count 0
field mean nan
field stddev nan
field sum 0
field sqrsum 0
field min nan
field max nan
statistic Basic.rack[9].eps.queue[1] 	dropsum
field count 0
field mean nan
field stddev nan
field sum 0
field sqrsum 0
field min nan
field max nan
statistic Basic.rack[9].eps.queue[2] 	dropsum
field count 0
field mean nan
field stddev nan
field sum 0
field sqrsum 0
field min nan
field max nan
statistic Basic.rack[9].eps.queue[3] 	dropsum
field count 0
field mean nan
field stddev nan
field sum 0
field sqrsum 0
field min nan
field max nan
statistic Basic.rack[10].node[0].app 	throughput
field count 99370
field mean 49685.5
field stddev 28685.792461891
field sum 4937248135
field sqrsum 3.2707787719934e+014
field min 1
field max 99370
statistic Basic.rack[10].node[0].app 	"End-to-End Delay"
field count 99370
field mean 9.6117540740636e-006
field stddev 1.1569611055238e-005
field sum 0.9551200023397
field sqrsum 2.2481505497776e-005
field min 4e-007
field max 0.000108257219
statistic Basic.rack[10].node[0].app 	hops
field count 99370
field mean 3.2523498037637
field stddev 0.82975002513758
field sum 323186
field sqrsum 1119528
field min 2
field max 4
statistic Basic.rack[10].node[1].app 	throughput
field count 100584
field mean 50292.5
field stddev 29036.244075293
field sum 5058620820
field sqrsum 3.3921256391286e+014
field min 1
field max 100584
statistic Basic.rack[10].node[1].app 	"End-to-End Delay"
field count 100584
field mean 9.6632087704975e-006
field stddev 1.160396266136e-005
field sum 0.97196419097172
field sqrsum 2.2935989925959e-005
field min 4e-007
field max 0.000126061167
statistic Basic.rack[10].node[1].app 	hops
field count 100584
field mean 3.2529030462101
field stddev 0.8277871844529
field sum 327190
field sqrsum 1133240
field min 2
field max 4
statistic Basic.rack[10].node[2].app 	throughput
field count 100326
field mean 50163.5
field stddev 28961.765890567
field sum 5032703301
field sqrsum 3.3660900515185e+014
field min 1
field max 100326
statistic Basic.rack[10].node[2].app 	"End-to-End Delay"
field count 100326
field mean 9.6122802471714e-006
field stddev 1.1560291986638e-005
field sum 0.96436162807772
field sqrsum 2.267718242435e-005
field min 4e-007
field max 0.000118537407
statistic Basic.rack[10].node[2].app 	hops
field count 100326
field mean 3.2483105077448
field stddev 0.82902786617894
field sum 325890
field sqrsum 1127544
field min 2
field max 4
statistic Basic.rack[10].node[3].app 	throughput
field count 100249
field mean 50125
field stddev 28939.537905203
field sum 5024981125
field sqrsum 3.3583456352712e+014
field min 1
field max 100249
statistic Basic.rack[10].node[3].app 	"End-to-End Delay"
field count 100249
field mean 9.6124525640626e-006
field stddev 1.1516448108103e-005
field sum 0.96363875709471
field sqrsum 2.2558681431231e-005
field min 4e-007
field max 0.000126373779
statistic Basic.rack[10].node[3].app 	hops
field count 100249
field mean 3.2494089716606
field stddev 0.82970056965642
field sum 325750
field sqrsum 1127506
field min 2
field max 4
statistic Basic.rack[10].node[4].app 	throughput
field count 100009
field mean 50005
field stddev 28870.255872899
field sum 5000950045
field sqrsum 3.3342834235028e+014
field min 1
field max 100009
statistic Basic.rack[10].node[4].app 	"End-to-End Delay"
field count 100009
field mean 9.5799758415813e-006
field stddev 1.1583543924519e-005
field sum 0.95808380394071
field sqrsum 2.2597342109008e-005
field min 4e-007
field max 0.000115028801
statistic Basic.rack[10].node[4].app 	hops
field count 100009
field mean 3.2486876181144
field stddev 0.82977335495491
field sum 324898
field sqrsum 1124350
field min 2
field max 4
statistic Basic.rack[10].node[5].app 	throughput
field count 99788
field mean 49894.5
field stddev 28806.458668153
field sum 4978872366
field sqrsum 3.3122280339639e+014
field min 1
field max 99788
statistic Basic.rack[10].node[5].app 	"End-to-End Delay"
field count 99788
field mean 9.6367973669551e-006
field stddev 1.1555341260438e-005
field sum 0.96163673565372
field sqrsum 2.2591248507453e-005
field min 4e-007
field max 0.000147451528
statistic Basic.rack[10].node[5].app 	hops
field count 99788
field mean 3.254810197619
field stddev 0.82804581187711
field sum 324791
field sqrsum 1125553
field min 2
field max 4
statistic Basic.rack[10].node[6].app 	throughput
field count 99873
field mean 49937
field stddev 28830.996054594
field sum 4987358001
field sqrsum 3.3206993287525e+014
field min 1
field max 99873
statistic Basic.rack[10].node[6].app 	"End-to-End Delay"
field count 99873
field mean 9.6583685015041e-006
field stddev 1.16036702201e-005
field sum 0.96461023735072
field sqrsum 2.2763842809531e-005
field min 4e-007
field max 0.000132085852
statistic Basic.rack[10].node[6].app 	hops
field count 99873
field mean 3.2517997857279
field stddev 0.8281154400917
field sum 324767
field sqrsum 1124567
field min 2
field max 4
statistic Basic.rack[10].node[7].app 	throughput
field count 99572
field mean 49786.5
field stddev 28744.10483908
field sum 4957341378
field sqrsum 3.2907658290727e+014
field min 1
field max 99572
statistic Basic.rack[10].node[7].app 	"End-to-End Delay"
field count 99572
field mean 9.6264231660478e-006
field stddev 1.1605704890885e-005
field sum 0.95852220748971
field sqrsum 2.2638595951182e-005
field min 4e-007
field max 0.000120713979
statistic Basic.rack[10].node[7].app 	hops
field count 99572
field mean 3.2502510745993
field stddev 0.83026484001427
field sum 323634
field sqrsum 1120530
field min 2
field max 4
statistic Basic.rack[10].node[8].app 	throughput
field count 100255
field mean 50128
field stddev 28941.26995601
field sum 5025582640
field sqrsum 3.3589486690968e+014
field min 1
field max 100255
statistic Basic.rack[10].node[8].app 	"End-to-End Delay"
field count 100255
field mean 9.6245247513213e-006
field stddev 1.1597145898017e-005
field sum 0.96490672894371
field sqrsum 2.277030941684e-005
field min 4e-007
field max 0.000161101902
statistic Basic.rack[10].node[8].app 	hops
field count 100255
field mean 3.254989776071
field stddev 0.82729438352547
field sum 326329
field sqrsum 1130813
field min 2
field max 4
statistic Basic.rack[10].node[9].app 	throughput
field count 99648
field mean 49824.5
field stddev 28766.044149309
field sum 4964911776
field sqrsum 3.2983067407382e+014
field min 1
field max 99648
statistic Basic.rack[10].node[9].app 	"End-to-End Delay"
field count 99648
field mean 9.6410813630047e-006
field stddev 1.1555830929341e-005
field sum 0.96071447566069
field sqrsum 2.2568910631563e-005
field min 4e-007
field max 0.000105377938
statistic Basic.rack[10].node[9].app 	hops
field count 99648
field mean 3.2529303147078
field stddev 0.82880411308785
field sum 324148
field sqrsum 1122880
field min 2
field max 4
statistic Basic.rack[10].eps.queue[0] 	dropsum
field count 0
field mean nan
field stddev nan
field sum 0
field sqrsum 0
field min nan
field max nan
statistic Basic.rack[10].eps.queue[1] 	dropsum
field count 0
field mean nan
field stddev nan
field sum 0
field sqrsum 0
field min nan
field max nan
statistic Basic.rack[10].eps.queue[2] 	dropsum
field count 0
field mean nan
field stddev nan
field sum 0
field sqrsum 0
field min nan
field max nan
statistic Basic.rack[10].eps.queue[3] 	dropsum
field count 0
field mean nan
field stddev nan
field sum 0
field sqrsum 0
field min nan
field max nan
statistic Basic.rack[11].node[0].app 	throughput
field count 99892
field mean 49946.5
field stddev 28836.480882151
field sum 4989255778
field sqrsum 3.3225948853591e+014
field min 1
field max 99892
statistic Basic.rack[11].node[0].app 	"End-to-End Delay"
field count 99892
field mean 9.6477820545359e-006
field stddev 1.1592479254779e-005
field sum 0.9637362449917
field sqrsum 2.2721826749281e-005
field min 4e-007
field max 0.000119589653
statistic Basic.rack[11].node[0].app 	hops
field count 99892
field mean 3.2483081728267
field stddev 0.82870875900885
field sum 324480
field sqrsum 1122612
field min 2
field max 4
statistic Basic.rack[11].node[1].app 	throughput
field count 99923
field mean 49962
field stddev 28845.429811324
field sum 4992352926
field sqrsum 3.3256891840077e+014
field min 1
field max 99923
statistic Basic.rack[11].node[1].app 	"End-to-End Delay"
field count 99923
field mean 9.7328200561804e-006
field stddev 1.1675940092637e-005
field sum 0.97253257847371
field sqrsum 2.3087608738733e-005
field min 4e-007
field max 0.000115775771
statistic Basic.rack[11].node[1].app 	hops
field count 99923
field mean 3.2505028872232
field stddev 0.82874745473351
field sum 324800
field sqrsum 1124392
field min 2
field max 4
statistic Basic.rack[11].node[2].app 	throughput
field count 99776
field mean 49888.5
field stddev 28802.994566538
field sum 4977674976
field sqrsum 3.3110332482858e+014
field min 1
field max 99776
statistic Basic.rack[11].node[2].app 	"End-to-End Delay"
field count 99776
field mean 9.6604412146278e-006
field stddev 1.1662252692798e-005
field sum 0.9638801826307
field sqrsum 2.2881719798295e-005
field min 4e-007
field max 0.000118794429
statistic Basic.rack[11].node[2].app 	hops
field count 99776
field mean 3.2516637267479
field stddev 0.829164727325
field sum 324438
field sqrsum 1123560
field min 2
field max 4
[...]
field sum 299928
field sqrsum 949028
field min 2
field max 4
statistic Basic.rack[13].node[2].app 	throughput
field count 99974
field mean 49987.5
field stddev 28860.152243188
field sum 4997450325
field sqrsum 3.3307839834448e+014
field min 1
field max 99974
statistic Basic.rack[13].node[2].app 	"End-to-End Delay"
field count 99974
field mean 1.3431459728551e-005
field stddev 1.1674539508046e-005
field sum 1.3427967549022
field sqrsum 3.1661527848027e-005
field min 4e-007
field max 0.000112724438
statistic Basic.rack[13].node[2].app 	hops
field count 99974
field mean 2.9983295656871
field stddev 0.70641485424657
field sum 299755
field sqrsum 948653
field min 2
field max 4
statistic Basic.rack[13].node[3].app 	throughput
field count 100565
field mean 50283
field stddev 29030.759247736
field sum 5056709895
field sqrsum 3.3902037263042e+014
field min 1
field max 100565
statistic Basic.rack[13].node[3].app 	"End-to-End Delay"
field count 100565
field mean 1.3437524560316e-005
field stddev 1.1652078227755e-005
field sum 1.3513446574082
field sqrsum 3.1812394528789e-005
field min 4e-007
field max 0.000132577938
statistic Basic.rack[13].node[3].app 	hops
field count 100565
field mean 3.0005270223239
field stddev 0.70733858334111
field sum 301748
field sqrsum 955718
field min 2
field max 4
statistic Basic.rack[13].node[4].app 	throughput
field count 99892
field mean 49946.5
field stddev 28836.480882151
field sum 4989255778
field sqrsum 3.3225948853591e+014
field min 1
field max 99892
statistic Basic.rack[13].node[4].app 	"End-to-End Delay"
field count 99892
field mean 1.3478934388051e-005
field stddev 1.1713952366916e-005
field sum 1.3464377138912
field sqrsum 3.1855256990448e-005
field min 4e-007
field max 0.000115652427
statistic Basic.rack[13].node[4].app 	hops
field count 99892
field mean 3.0012012974012
field stddev 0.70829753319085
field sum 299796
field sqrsum 949862
field min 2
field max 4
statistic Basic.rack[13].node[5].app 	throughput
field count 99526
field mean 49763.5
field stddev 28730.825782888
field sum 4952762101
field sqrsum 3.2862071816345e+014
field min 1
field max 99526
statistic Basic.rack[13].node[5].app 	"End-to-End Delay"
field count 99526
field mean 1.3440192921138e-005
field stddev 1.1655955199999e-005
field sum 1.3376486406692
field sqrsum 3.1499850840208e-005
field min 4e-007
field max 0.00010776585
statistic Basic.rack[13].node[5].app 	hops
field count 99526
field mean 2.9988847135422
field stddev 0.70669725614174
field sum 298467
field sqrsum 944773
field min 2
field max 4
statistic Basic.rack[13].node[6].app 	throughput
field count 100086
field mean 50043.5
field stddev 28892.483858263
field sum 5008653741
field sqrsum 3.3419908176573e+014
field min 1
field max 100086
statistic Basic.rack[13].node[6].app 	"End-to-End Delay"
field count 100086
field mean 1.350215106034e-005
field stddev 1.1673340805784e-005
field sum 1.3513762910252
field sqrsum 3.1884758062854e-005
field min 4e-007
field max 0.000126836052
statistic Basic.rack[13].node[6].app 	hops
field count 100086
field mean 3.003487001179
field stddev 0.70672009668969
field sum 300607
field sqrsum 952857
field min 2
field max 4
statistic Basic.rack[13].node[7].app 	throughput
field count 99989
field mean 49995
field stddev 28864.482370207
field sum 4998950055
field sqrsum 3.3322834434962e+014
field min 1
field max 99989
statistic Basic.rack[13].node[7].app 	"End-to-End Delay"
field count 99989
field mean 1.3457536244059e-005
field stddev 1.165157204229e-005
field sum 1.3456055915072
field sqrsum 3.168282001401e-005
field min 4e-007
field max 0.000118965131
statistic Basic.rack[13].node[7].app 	hops
field count 99989
field mean 3.0014601606177
field stddev 0.70598702416326
field sum 300113
field sqrsum 950613
field min 2
field max 4
statistic Basic.rack[13].node[8].app 	throughput
field count 99855
field mean 49928
field stddev 28825.799902171
field sum 4985560440
field sqrsum 3.3189042034428e+014
field min 1
field max 99855
statistic Basic.rack[13].node[8].app 	"End-to-End Delay"
field count 99855
field mean 1.3492813872367e-005
field stddev 1.168427192985e-005
field sum 1.3473249292252
field sqrsum 3.1811493305966e-005
field min 4e-007
field max 0.000127502041
statistic Basic.rack[13].node[8].app 	hops
field count 99855
field mean 3.0039357067748
field stddev 0.70744981526919
field sum 299958
field sqrsum 951030
field min 2
field max 4
statistic Basic.rack[13].node[9].app 	throughput
field count 100366
field mean 50183.5
field stddev 28973.312895951
field sum 5036717161
field sqrsum 3.3701178195967e+014
field min 1
field max 100366
statistic Basic.rack[13].node[9].app 	"End-to-End Delay"
field count 100366
field mean 1.3450423146805e-005
field stddev 1.1653807404729e-005
field sum 1.3499651695522
field sqrsum 3.178829656444e-005
field min 4e-007
field max 0.000121200535
statistic Basic.rack[13].node[9].app 	hops
field count 100366
field mean 3.0002490883367
field stddev 0.70702571111514
field sum 301123
field sqrsum 953615
field min 2
field max 4
statistic Basic.rack[13].eps.queue[0] 	dropsum
field count 0
field mean nan
field stddev nan
field sum 0
field sqrsum 0
field min nan
field max nan
statistic Basic.rack[13].eps.queue[1] 	dropsum
field count 0
field mean nan
field stddev nan
field sum 0
field sqrsum 0
field min nan
field max nan
statistic Basic.rack[13].eps.queue[2] 	dropsum
field count 0
field mean nan
field stddev nan
field sum 0
field sqrsum 0
field min nan
field max nan
statistic Basic.rack[13].eps.queue[3] 	dropsum
field count 0
field mean nan
field stddev nan
field sum 0
field sqrsum 0
field min nan
field max nan
statistic Basic.rack[14].node[0].app 	throughput
field count 100239
field mean 50120
field stddev 28936.651153857
field sum 5023978680
field sqrsum 3.3573407392924e+014
field min 1
field max 100239
statistic Basic.rack[14].node[0].app 	"End-to-End Delay"
field count 100239
field mean 9.5954785948156e-006
field stddev 1.1624049438107e-005
field sum 0.96184117886572
field sqrsum 2.2773337186404e-005
field min 4e-007
field max 0.000110230777
statistic Basic.rack[14].node[0].app 	hops
field count 100239
field mean 3.2504214926326
field stddev 0.83129687070248
field sum 325819
field sqrsum 1128319
field min 2
field max 4
statistic Basic.rack[14].node[1].app 	throughput
field count 100132
field mean 50066.5
field stddev 28905.762914455
field sum 5013258778
field sqrsum 3.3466008972539e+014
field min 1
field max 100132
statistic Basic.rack[14].node[1].app 	"End-to-End Delay"
field count 100132
field mean 9.6382346555018e-006
field stddev 1.1581054802099e-005
field sum 0.96509571252471
field sqrsum 2.2731471804027e-005
field min 4e-007
field max 0.000109937083
statistic Basic.rack[14].node[1].app 	hops
field count 100132
field mean 3.248382135581
field stddev 0.82994730835112
field sum 325267
field sqrsum 1125563
field min 2
field max 4
statistic Basic.rack[14].node[2].app 	throughput
field count 99679
field mean 49840
field stddev 28774.993078482
field sum 4968001360
field sqrsum 3.3013859437608e+014
field min 1
field max 99679
statistic Basic.rack[14].node[2].app 	"End-to-End Delay"
field count 99679
field mean 9.6240747381063e-006
field stddev 1.1561433786046e-005
field sum 0.9593181458197
field sqrsum 2.255618395802e-005
field min 4e-007
field max 0.000100074788
statistic Basic.rack[14].node[2].app 	hops
field count 99679
field mean 3.250303474152
field stddev 0.82848018983401
field sum 323987
field sqrsum 1121473
field min 2
field max 4
statistic Basic.rack[14].node[3].app 	throughput
field count 100146
field mean 50073.5
field stddev 28909.804366339
field sum 5014660731
field sqrsum 3.3480048059806e+014
field min 1
field max 100146
statistic Basic.rack[14].node[3].app 	"End-to-End Delay"
field count 100146
field mean 9.6248933700768e-006
field stddev 1.1553711988687e-005
field sum 0.96389457143971
field sqrsum 2.264556433966e-005
field min 4e-007
field max 0.000100300234
statistic Basic.rack[14].node[3].app 	hops
field count 100146
field mean 3.2516326163801
field stddev 0.8295605662694
field sum 325638
field sqrsum 1127772
field min 2
field max 4
statistic Basic.rack[14].node[4].app 	throughput
field count 99663
field mean 49832
field stddev 28770.374276328
field sum 4966406616
field sqrsum 3.2997964384914e+014
field min 1
field max 99663
statistic Basic.rack[14].node[4].app 	"End-to-End Delay"
field count 99663
field mean 9.6604178209737e-006
field stddev 1.1601593301748e-005
field sum 0.9627862212917
field sqrsum 2.2715120108977e-005
field min 4e-007
field max 0.000118731664
statistic Basic.rack[14].node[4].app 	hops
field count 99663
field mean 3.2509055517093
field stddev 0.82925439896349
field sum 323995
field sqrsum 1121811
field min 2
field max 4
statistic Basic.rack[14].node[5].app 	throughput
field count 99555
field mean 49778
field stddev 28739.197361791
field sum 4955648790
field sqrsum 3.2890806207523e+014
field min 1
field max 99555
statistic Basic.rack[14].node[5].app 	"End-to-End Delay"
field count 99555
field mean 9.6454035974657e-006
field stddev 1.1646692243555e-005
field sum 0.9602481551457
field sqrsum 2.2766027165373e-005
field min 4e-007
field max 0.000108287104
statistic Basic.rack[14].node[5].app 	hops
field count 99555
field mean 3.2463663301693
field stddev 0.83084443745919
field sum 323192
field sqrsum 1117922
field min 2
field max 4
statistic Basic.rack[14].node[6].app 	throughput
field count 99749
field mean 49875
field stddev 28795.200337904
field sum 4974981375
field sqrsum 3.3083460311038e+014
field min 1
field max 99749
statistic Basic.rack[14].node[6].app 	"End-to-End Delay"
field count 99749
field mean 9.6032887432426e-006
field stddev 1.1570987456931e-005
field sum 0.95791844884971
field sqrsum 2.2554202816445e-005
field min 4e-007
field max 0.000113215573
statistic Basic.rack[14].node[6].app 	hops
field count 99749
field mean 3.2451252644137
field stddev 0.83013916411548
field sum 323698
field sqrsum 1119180
field min 2
field max 4
statistic Basic.rack[14].node[7].app 	throughput
field count 99907
field mean 49954
field stddev 28840.81100917
field sum 4990754278
field sqrsum 3.3240918868619e+014
field min 1
field max 99907
statistic Basic.rack[14].node[7].app 	"End-to-End Delay"
field count 99907
field mean 9.6528696834427e-006
field stddev 1.1637914664121e-005
field sum 0.96438925146371
field sqrsum 2.2840498082001e-005
field min 4e-007
field max 9.9930082e-005
statistic Basic.rack[14].node[7].app 	hops
field count 99907
field mean 3.2485411432632
field stddev 0.83037515632546
field sum 324552
field sqrsum 1123208
field min 2
field max 4
statistic Basic.rack[14].node[8].app 	throughput
field count 99815
field mean 49908
field stddev 28814.252896787
field sum 4981567020
field sqrsum 3.3149173525654e+014
field min 1
field max 99815
statistic Basic.rack[14].node[8].app 	"End-to-End Delay"
field count 99815
field mean 9.6890385137074e-006
field stddev 1.1608243507989e-005
field sum 0.9671113792457
field sqrsum 2.2820447389609e-005
field min 4e-007
field max 9.9446702e-005
statistic Basic.rack[14].node[8].app 	hops
field count 99815
field mean 3.2501928567851
field stddev 0.82862926758378
field sum 324418
field sqrsum 1122956
field min 2
field max 4
statistic Basic.rack[14].node[9].app 	throughput
field count 99577
field mean 49789
field stddev 28745.548214753
field sum 4957839253
field sqrsum 3.291261588104e+014
field min 1
field max 99577
statistic Basic.rack[14].node[9].app 	"End-to-End Delay"
field count 99577
field mean 9.6728471861244e-006
field stddev 1.1574346106859e-005
field sum 0.9631931042527
field sqrsum 2.2656567121474e-005
field min 4e-007
field max 0.000100665293
statistic Basic.rack[14].node[9].app 	hops
field count 99577
field mean 3.2480994607188
field stddev 0.82930880941858
field sum 323436
field sqrsum 1119036
field min 2
field max 4
statistic Basic.rack[14].eps.queue[0] 	dropsum
field count 0
field mean nan
field stddev nan
field sum 0
field sqrsum 0
field min nan
field max nan
statistic Basic.rack[14].eps.queue[1] 	dropsum
field count 0
field mean nan
field stddev nan
field sum 0
field sqrsum 0
field min nan
field max nan
statistic Basic.rack[14].eps.queue[2] 	dropsum
field count 0
field mean nan
field stddev nan
field sum 0
field sqrsum 0
field min nan
field max nan
statistic Basic.rack[14].eps.queue[3] 	dropsum
field count 0
field mean nan
field stddev nan
field sum 0
field sqrsum 0
field min nan
field max nan
statistic Basic.rack[15].node[0].app 	throughput
field count 99695
field mean 49848
field stddev 28779.611880635
field sum 4969596360
field sqrsum 3.3029759593892e+014
field min 1
field max 99695
statistic Basic.rack[15].node[0].app 	"End-to-End Delay"
field count 99695
field mean 9.6483407958243e-006
field stddev 1.1549614106174e-005
field sum 0.96189133563971
field sqrsum 2.257919557764e-005
field min 4e-007
field max 0.000104102671
statistic Basic.rack[15].node[0].app 	hops
field count 99695
field mean 3.2508952304529
field stddev 0.83059293456726
field sum 324098
field sqrsum 1122386
field min 2
field max 4
statistic Basic.rack[15].node[1].app 	throughput
field count 100329
field mean 50165
field stddev 28962.631915971
field sum 5033004285
field sqrsum 3.366392022746e+014
field min 1
field max 100329
statistic Basic.rack[15].node[1].app 	"End-to-End Delay"
field count 100329
field mean 9.5718665171159e-006
field stddev 1.1540475678762e-005
field sum 0.96033579579573
field sqrsum 2.2554147824051e-005
field min 4e-007
field max 0.000103678428
statistic Basic.rack[15].node[1].app 	hops
field count 100329
field mean 3.2480040666208
field stddev 0.83103933338794
field sum 325869
field sqrsum 1127713
field min 2
field max 4
statistic Basic.rack[15].node[2].app 	throughput
field count 100300
field mean 50150.5
field stddev 28954.260337067
field sum 5030095150
field sqrsum 3.3634737239505e+014
field min 1
field max 100300
statistic Basic.rack[15].node[2].app 	"End-to-End Delay"
field count 100300
field mean 9.6076884093691e-006
field stddev 1.1558775906371e-005
field sum 0.96365114745972
field sqrsum 2.2658937990331e-005
field min 4e-007
field max 0.00010248433
statistic Basic.rack[15].node[2].app 	hops
field count 100300
field mean 3.2508973080758
field stddev 0.82902155278685
field sum 326065
field sqrsum 1128937
field min 2
field max 4
statistic Basic.rack[15].node[3].app 	throughput
field count 99728
field mean 49864.5
field stddev 28789.138160077
field sum 4972886856
field sqrsum 3.3062569787906e+014
field min 1
field max 99728
statistic Basic.rack[15].node[3].app 	"End-to-End Delay"
field count 99728
field mean 9.6551543965556e-006
field stddev 1.1566326897225e-005
field sum 0.9628892376597
field sqrsum 2.2638314128149e-005
field min 4e-007
field max 0.000104213101
statistic Basic.rack[15].node[3].app 	hops
field count 99728
field mean 3.2516845820632
field stddev 0.82895302957045
field sum 324284
field sqrsum 1122998
field min 2
field max 4
statistic Basic.rack[15].node[4].app 	throughput
field count 100482
field mean 50241.5
field stddev 29006.799211564
field sum 5048366403
field sqrsum 3.3818165139296e+014
field min 1
field max 100482
statistic Basic.rack[15].node[4].app 	"End-to-End Delay"
field count 100482
field mean 9.6396044348809e-006
field stddev 1.1588288118366e-005
field sum 0.96860673282571
field sqrsum 2.2830420639577e-005
field min 4e-007
field max 0.000118765769
statistic Basic.rack[15].node[4].app 	hops
field count 100482
field mean 3.2493879500806
field stddev 0.82941361514261
field sum 326505
field sqrsum 1130065
field min 2
field max 4
statistic Basic.rack[15].node[5].app 	throughput
field count 99699
field mean 49850
field stddev 28780.766581174
field sum 4969995150
field sqrsum 3.3033735430495e+014
field min 1
field max 99699
statistic Basic.rack[15].node[5].app 	"End-to-End Delay"
field count 99699
field mean 9.6325780485332e-006
field stddev 1.1553583481386e-005
field sum 0.96035839886071
field sqrsum 2.2558943799765e-005
field min 4e-007
field max 9.3544395e-005
statistic Basic.rack[15].node[5].app 	hops
field count 99699
field mean 3.2490897601781
field stddev 0.8291182720376
field sum 323931
field sqrsum 1121017
field min 2
field max 4
statistic Basic.rack[15].node[6].app 	throughput
field count 99481
field mean 49741
field stddev 28717.835401831
field sum 4948284421
field sqrsum 3.2817517108514e+014
field min 1
field max 99481
statistic Basic.rack[15].node[6].app 	"End-to-End Delay"
field count 99481
field mean 9.6566382139373e-006
field stddev 1.1583968641604e-005
field sum 0.9606520261607
field sqrsum 2.2625724083752e-005
field min 4e-007
field max 0.000126490054
statistic Basic.rack[15].node[6].app 	hops
field count 99481
field mean 3.2477256963641
field stddev 0.8301651553461
field sum 323087
field sqrsum 1117857
field min 2
field max 4
statistic Basic.rack[15].node[7].app 	throughput
field count 99835
field mean 49918
field stddev 28820.026399479
field sum 4983563530
field sqrsum 3.3169103786621e+014
field min 1
field max 99835
statistic Basic.rack[15].node[7].app 	"End-to-End Delay"
field count 99835
field mean 9.6460937143356e-006
field stddev 1.1556133792923e-005
field sum 0.9630177659707
field sqrsum 2.2621614101229e-005
field min 4e-007
field max 0.000113040675
statistic Basic.rack[15].node[7].app 	hops
field count 99835
field mean 3.2516952972404
field stddev 0.82783550479767
field sum 324633
field sqrsum 1124025
field min 2
field max 4
statistic Basic.rack[15].node[8].app 	throughput
field count 100294
field mean 50147.5
field stddev 28952.52828626
field sum 5029493365
field sqrsum 3.36287014864e+014
field min 1
field max 100294
statistic Basic.rack[15].node[8].app 	"End-to-End Delay"
field count 100294
field mean 9.6398515066675e-006
field stddev 1.1569301966633e-005
field sum 0.96681926700971
field sqrsum 2.2744086650435e-005
field min 4e-007
field max 0.000106524789
statistic Basic.rack[15].node[8].app 	hops
field count 100294
field mean 3.2479909067342
field stddev 0.82814866970551
field sum 325754
field sqrsum 1126830
field min 2
field max 4
statistic Basic.rack[15].node[9].app 	throughput
field count 99562
field mean 49781.5
field stddev 28741.218087734
field sum 4956345703
field sqrsum 3.2897744603662e+014
field min 1
field max 99562
statistic Basic.rack[15].node[9].app 	"End-to-End Delay"
field count 99562
field mean 9.6770715574386e-006
field stddev 1.1581366737621e-005
field sum 0.96346859840171
field sqrsum 2.2677477904837e-005
field min 4e-007
field max 0.000102517286
statistic Basic.rack[15].node[9].app 	hops
field count 99562
field mean 3.2511299491774
field stddev 0.82869460257371
field sum 323689
field sqrsum 1120727
field min 2
field max 4
statistic Basic.rack[15].eps.queue[0] 	dropsum
field count 0
field mean nan
field stddev nan
field sum 0
field sqrsum 0
field min nan
field max nan
statistic Basic.rack[15].eps.queue[1] 	dropsum
field count 0
field mean nan
field stddev nan
field sum 0
field sqrsum 0
field min nan
field max nan
statistic Basic.rack[15].eps.queue[2] 	dropsum
field count 0
field mean nan
field stddev nan
field sum 0
field sqrsum 0
field min nan
field max nan
statistic Basic.rack[15].eps.queue[3] 	dropsum
field count 0
field mean nan
field stddev nan
field sum 0
field sqrsum 0
field min nan
field max nan
