version 2
run Basic-70-20180510-19:58:50-22044
attr configname Basic
attr datetime 20180510-19:58:50
attr experiment Basic
attr inifile omnetpp.ini
attr iterationvars "$0=exponential(0.05 ms), $1=5, $2=4"
attr iterationvarsf exponential(0.05_ms),5,4-
attr measurement "$0=exponential(0.05 ms), $1=5, $2=4"
attr network Networks.Basic
attr processid 22044
attr repetition 0
attr replication #0
attr resultdir results
attr runnumber 70
attr seedset 70
param **.frameCapacity 50
param **.packetLength "1024 bytes"
param **.pattern 5
param **.sendIaTime "exponential(0.05 ms)"
param **.tp 4

statistic Basic.rack[0].node[0].app 	throughput
field count 73678
field mean 36839.5
field stddev 21269.150903754
field sum 2714260681
field sqrsum 1.3332177039004e+014
field min 1
field max 73678
statistic Basic.rack[0].node[0].app 	"End-to-End Delay"
field count 73678
field mean 0.00051256418837896
field stddev 0.00017611493540612
field sum 37.764704271385
field sqrsum 0.021642035489281
field min 0.000109635313
field max 0.000830926159
statistic Basic.rack[0].node[0].app 	hops
field count 73678
field mean 3.7293764760173
field stddev 1.2869195245475
field sum 274773
field sqrsum 1146753
field min 3
field max 6
statistic Basic.rack[0].node[1].app 	throughput
field count 73621
field mean 36811
field stddev 21252.696421082
field sum 2710062631
field sqrsum 1.3301258399211e+014
field min 1
field max 73621
statistic Basic.rack[0].node[1].app 	"End-to-End Delay"
field count 73621
field mean 0.00051275779630099
field stddev 0.00017612171822555
field sum 37.749741721475
field sqrsum 0.021640082822048
field min 0.000313057443
field max 0.00083092504
statistic Basic.rack[0].node[1].app 	hops
field count 73621
field mean 3.7301449314734
field stddev 1.2873793867094
field sum 274617
field sqrsum 1146375
field min 3
field max 6
statistic Basic.rack[0].node[2].app 	throughput
field count 73592
field mean 36796.5
field stddev 21244.324842178
field sum 2707928028
field sqrsum 1.3285546226706e+014
field min 1
field max 73592
statistic Basic.rack[0].node[2].app 	"End-to-End Delay"
field count 73592
field mean 0.00051194271786645
field stddev 0.00017574844483766
field sum 37.674888493228
field sqrsum 0.021560427990402
field min 2.8110195e-005
field max 0.000830925791
statistic Basic.rack[0].node[2].app 	hops
field count 73592
field mean 3.7246439830416
field stddev 1.2840737720993
field sum 274104
field sqrsum 1142280
field min 3
field max 6
statistic Basic.rack[0].node[3].app 	throughput
field count 72964
field mean 36482.5
field stddev 21063.036857649
field sum 2661909130
field sqrsum 1.2948324581059e+014
field min 1
field max 72964
statistic Basic.rack[0].node[3].app 	"End-to-End Delay"
field count 72964
field mean 0.00051200154685309
field stddev 0.00017571240756683
field sum 37.357680864589
field sqrsum 0.021379912082681
field min 7.3293304e-005
field max 0.000830925521
statistic Basic.rack[0].node[3].app 	hops
field count 72964
field mean 3.724960254372
field stddev 1.2842647692311
field sum 271788
field sqrsum 1132740
field min 3
field max 6
statistic Basic.rack[0].node[4].app 	throughput
field count 73403
field mean 36702
field stddev 21189.765241739
field sum 2694036906
field sqrsum 1.3183449201971e+014
field min 1
field max 73403
statistic Basic.rack[0].node[4].app 	"End-to-End Delay"
field count 73403
field mean 0.00051210650648771
field stddev 0.00017578272456682
field sum 37.590153895717
field sqrsum 0.021518252352204
field min 0.000173072951
field max 0.000830925828
statistic Basic.rack[0].node[4].app 	hops
field count 73403
field mean 3.7256515401278
field stddev 1.2846816519601
field sum 273474
field sqrsum 1140012
field min 3
field max 6
statistic Basic.rack[0].node[5].app 	throughput
field count 73783
field mean 36892
field stddev 21299.461792887
field sum 2722002436
field sqrsum 1.338925778244e+014
field min 1
field max 73783
statistic Basic.rack[0].node[5].app 	"End-to-End Delay"
field count 73783
field mean 0.00051244326462172
field stddev 0.00017599809254254
field sum 37.809601393584
field sqrsum 0.021660697265361
field min 0.000135684819
field max 0.000830925677
statistic Basic.rack[0].node[5].app 	hops
field count 73783
field mean 3.7279319084342
field stddev 1.2860533729864
field sum 275058
field sqrsum 1147428
field min 3
field max 6
statistic Basic.rack[0].node[6].app 	throughput
field count 73784
field mean 36892.5
field stddev 21299.750468022
field sum 2722076220
field sqrsum 1.3389802190306e+014
field min 1
field max 73784
statistic Basic.rack[0].node[6].app 	"End-to-End Delay"
field count 73784
field mean 0.00051300275519432
field stddev 0.00017634114966194
field sum 37.851395289258
field sqrsum 0.021712241074451
field min 0.000110767676
field max 0.000830925351
statistic Basic.rack[0].node[6].app 	hops
field count 73784
field mean 3.7325165347501
field stddev 1.2887946469901
field sum 275400
field sqrsum 1150488
field min 3
field max 6
statistic Basic.rack[0].node[7].app 	throughput
field count 73649
field mean 36825
field stddev 21260.779324851
field sum 2712124425
field sqrsum 1.3316440522602e+014
field min 1
field max 73649
statistic Basic.rack[0].node[7].app 	"End-to-End Delay"
field count 73649
field mean 0.00051262017782926
field stddev 0.00017612746459499
field sum 37.753963476947
field sqrsum 0.021638069520285
field min 4.5426414e-005
field max 0.000830924587
statistic Basic.rack[0].node[7].app 	hops
field count 73649
field mean 3.7295822074977
field stddev 1.2870427019058
field sum 274680
field sqrsum 1146438
field min 3
field max 6
statistic Basic.rack[0].node[8].app 	throughput
field count 73411
field mean 36706
field stddev 21192.074642816
field sum 2694624166
field sqrsum 1.3187760130821e+014
field min 1
field max 73411
statistic Basic.rack[0].node[8].app 	"End-to-End Delay"
field count 73411
field mean 0.00051275399315519
field stddev 0.00017614446428882
field sum 37.641783391516
field sqrsum 0.021578657438996
field min 3.710683e-005
field max 0.00083092613
statistic Basic.rack[0].node[8].app 	hops
field count 73411
field mean 3.7302720300772
field stddev 1.2874554094193
field sum 273843
field sqrsum 1143189
field min 3
field max 6
statistic Basic.rack[0].node[9].app 	throughput
field count 73280
field mean 36640.5
field stddev 21154.258200183
field sum 2685015840
field sqrsum 1.3117286884208e+014
field min 1
field max 73280
statistic Basic.rack[0].node[9].app 	"End-to-End Delay"
field count 73280
field mean 0.00051383898158495
field stddev 0.00017686282394537
field sum 37.654120570545
field sqrsum 0.021640355684423
field min 0.000101357026
field max 0.000830925578
statistic Basic.rack[0].node[9].app 	hops
field count 73280
field mean 3.7383324235808
field stddev 1.2922404152354
field sum 273945
field sqrsum 1146465
field min 3
field max 6
statistic Basic.rack[0].eps.queue[0] 	dropsum
field count 649324
field mean 324662.5
field stddev 187443.83743213
field sum 210811153150
field sqrsum 9.1256564408782e+016
field min 1
field max 649324
statistic Basic.rack[0].eps.queue[1] 	dropsum
field count 614439
field mean 307220
field stddev 177373.40536159
field sum 188767949580
field sqrsum 7.732432303704e+016
field min 1
field max 614439
statistic Basic.rack[0].eps.queue[2] 	dropsum
field count 0
field mean nan
field stddev nan
field sum 0
field sqrsum 0
field min nan
field max nan
statistic Basic.rack[0].eps.queue[3] 	dropsum
field count 0
field mean nan
field stddev nan
field sum 0
field sqrsum 0
field min nan
field max nan
statistic Basic.rack[1].node[0].app 	throughput
field count 127840
field mean 63920.5
field stddev 36904.373543886
field sum 8171596720
field sqrsum 6.9644067365544e+014
field min 1
field max 127840
statistic Basic.rack[1].node[0].app 	"End-to-End Delay"
field count 127840
field mean 0.00039458421638848
field stddev 0.00032653433776244
field sum 50.443646223103
field sqrsum 0.033535058282707
field min 8.992e-006
field max 0.000836947294
statistic Basic.rack[1].node[0].app 	hops
field count 127840
field mean 4.2074624530663
field stddev 1.4712031520069
field sum 537882
field sqrsum 2539818
field min 3
field max 6
statistic Basic.rack[1].node[1].app 	throughput
field count 127634
field mean 63817.5
field stddev 36844.906466159
field sum 8145282795
field sqrsum 6.9307939793228e+014
field min 1
field max 127634
statistic Basic.rack[1].node[1].app 	"End-to-End Delay"
field count 127634
field mean 0.00039375004970861
field stddev 0.00032667338945331
field sum 50.255893844509
field sqrsum 0.033408680541933
field min 8.992e-006
field max 0.000836738085
statistic Basic.rack[1].node[1].app 	hops
field count 127634
field mean 4.2043342682984
field stddev 1.4705776820176
field sum 536616
field sqrsum 2532132
field min 3
field max 6
statistic Basic.rack[1].node[2].app 	throughput
field count 127926
field mean 63963.5
field stddev 36929.199605461
field sum 8182594701
field sqrsum 6.9784713401165e+014
field min 1
field max 127926
statistic Basic.rack[1].node[2].app 	"End-to-End Delay"
field count 127926
field mean 0.00039420558329288
field stddev 0.00032659983423031
field sum 50.429143448325
field sqrsum 0.033524883669195
field min 8.992e-006
field max 0.000836900057
statistic Basic.rack[1].node[2].app 	hops
field count 127926
field mean 4.2076122133108
field stddev 1.4712329191324
field sum 538263
field sqrsum 2541699
field min 3
field max 6
statistic Basic.rack[1].node[3].app 	throughput
field count 128019
field mean 64010
field stddev 36956.046392979
field sum 8194496190
field sqrsum 6.9937020333047e+014
field min 1
field max 128019
statistic Basic.rack[1].node[3].app 	"End-to-End Delay"
field count 128019
field mean 0.00039396472036939
field stddev 0.00032680643685994
field sum 50.434969536968
field sqrsum 0.033542234352675
field min 8.992e-006
field max 0.000836926342
statistic Basic.rack[1].node[3].app 	hops
field count 128019
field mean 4.2083987533101
field stddev 1.4713890119098
field sum 538755
field sqrsum 2544453
field min 3
field max 6
statistic Basic.rack[1].node[4].app 	throughput
field count 127736
field mean 63868.5
field stddev 36874.351329888
field sum 8158306716
field sqrsum 6.9474236388556e+014
field min 1
field max 127736
statistic Basic.rack[1].node[4].app 	"End-to-End Delay"
field count 127736
field mean 0.00039425592283183
field stddev 0.00032660494350757
field sum 50.360674558847
field sqrsum 0.033480587471332
field min 8.992e-006
field max 0.000836991734
statistic Basic.rack[1].node[4].app 	hops
field count 127736
field mean 4.2063552952965
field stddev 1.4709825719378
field sum 537303
field sqrsum 2536479
field min 3
field max 6
statistic Basic.rack[1].node[5].app 	throughput
field count 127974
field mean 63987.5
field stddev 36943.056011922
field sum 8188736325
field sqrsum 6.9863295788248e+014
field min 1
field max 127974
statistic Basic.rack[1].node[5].app 	"End-to-End Delay"
field count 127974
field mean 0.00039445939518096
field stddev 0.0003265233989295
field sum 50.480546638888
field sqrsum 0.033556691068473
field min 8.992e-006
field max 0.000837074207
statistic Basic.rack[1].node[5].app 	hops
field count 127974
field mean 4.2074640161283
field stddev 1.4712034567864
field sum 538446
field sqrsum 2542482
field min 3
field max 6
statistic Basic.rack[1].node[6].app 	throughput
field count 128100
field mean 64050.5
field stddev 36979.429078881
field sum 8204869050
field sqrsum 7.0069855182635e+014
field min 1
field max 128100
statistic Basic.rack[1].node[6].app 	"End-to-End Delay"
field count 128100
field mean 0.00039510647640524
field stddev 0.00032676351726365
field sum 50.613139627512
field sqrsum 0.033675272638715
field min 8.992e-006
field max 0.000836956201
statistic Basic.rack[1].node[6].app 	hops
field count 128100
field mean 4.2117330210773
field stddev 1.4720458772411
field sum 539523
field sqrsum 2549907
field min 3
field max 6
statistic Basic.rack[1].node[7].app 	throughput
field count 127612
field mean 63806.5
field stddev 36838.555613198
field sum 8142475078
field sqrsum 6.9272106726085e+014
field min 1
field max 127612
statistic Basic.rack[1].node[7].app 	"End-to-End Delay"
field count 127612
field mean 0.00039553660037639
field stddev 0.00032728110125841
field sum 50.475216647232
field sqrsum 0.03363358233316
field min 8.992e-006
field max 0.000836896909
statistic Basic.rack[1].node[7].app 	hops
field count 127612
field mean 4.2116180296524
field stddev 1.4720233758968
field sum 537453
field sqrsum 2540061
field min 3
field max 6
statistic Basic.rack[1].node[8].app 	throughput
field count 128145
field mean 64073
field stddev 36992.419459938
field sum 8210634585
field sqrsum 7.0143724947474e+014
field min 1
field max 128145
statistic Basic.rack[1].node[8].app 	"End-to-End Delay"
field count 128145
field mean 0.00039343983795925
field stddev 0.00032647045207567
field sum 50.417348035288
field sqrsum 0.033494159565061
field min 8.992e-006
field max 0.000836923303
statistic Basic.rack[1].node[8].app 	hops
field count 128145
field mean 4.2031838932459
field stddev 1.4703459013569
field sum 538617
field sqrsum 2540943
field min 3
field max 6
statistic Basic.rack[1].node[9].app 	throughput
field count 127499
field mean 63750
field stddev 36805.935322988
field sum 8128061250
field sqrsum 6.9088249689625e+014
field min 1
field max 127499
statistic Basic.rack[1].node[9].app 	"End-to-End Delay"
field count 127499
field mean 0.00039574740111684
field stddev 0.00032716144840693
field sum 50.457397894996
field sqrsum 0.033615083213611
field min 8.992e-006
field max 0.000836913326
statistic Basic.rack[1].node[9].app 	hops
field count 127499
field mean 4.2164801292559
field stddev 1.4729675827255
field sum 537597
field sqrsum 2543391
field min 3
field max 6
statistic Basic.rack[1].eps.queue[0] 	dropsum
field count 1005414
field mean 502707.5
field stddev 290238.16611043
field sum 505429158405
field sqrsum 3.387772030551e+017
field min 1
field max 1005414
statistic Basic.rack[1].eps.queue[1] 	dropsum
field count 17933
field mean 8967
field stddev 5176.955524244
field sum 160805211
field sqrsum 1922533500979
field min 1
field max 17933
statistic Basic.rack[1].eps.queue[2] 	dropsum
field count 0
field mean nan
field stddev nan
field sum 0
field sqrsum 0
field min nan
field max nan
statistic Basic.rack[1].eps.queue[3] 	dropsum
field count 0
field mean nan
field stddev nan
field sum 0
field sqrsum 0
field min nan
field max nan
statistic Basic.rack[2].node[0].app 	throughput
field count 142237
field mean 71119
field stddev 41060.429456676
field sum 10115753203
field sqrsum 9.5922629747448e+014
field min 1
field max 142237
statistic Basic.rack[2].node[0].app 	"End-to-End Delay"
field count 142237
field mean 0.00045273126883273
field stddev 0.00029270502621322
field sum 64.395137484961
field sqrsum 0.041339936887673
field min 8.992e-006
field max 0.001252093213
statistic Basic.rack[2].node[0].app 	hops
field count 142237
field mean 4.4684716353691
field stddev 1.1318050805225
field sum 635582
field sqrsum 3022282
field min 3
field max 6
statistic Basic.rack[2].node[1].app 	throughput
field count 142143
field mean 71072
field stddev 41033.293994024
field sum 10102387296
field sqrsum 9.5732579240598e+014
field min 1
field max 142143
statistic Basic.rack[2].node[1].app 	"End-to-End Delay"
field count 142143
field mean 0.0004520012889996
field stddev 0.00029116835694111
field sum 64.248819222269
field sqrsum 0.041091207440781
field min 8.992e-006
field max 0.001252171988
statistic Basic.rack[2].node[1].app 	hops
field count 142143
field mean 4.4753030398964
field stddev 1.1306595351915
field sum 636133
field sqrsum 3028601
field min 3
field max 6
statistic Basic.rack[2].node[2].app 	throughput
field count 142042
field mean 71021.5
field stddev 41004.13780543
field sum 10088035903
field sqrsum 9.5528655983458e+014
field min 1
field max 142042
statistic Basic.rack[2].node[2].app 	"End-to-End Delay"
field count 142042
field mean 0.00045164597570999
field stddev 0.00029210568459723
field sum 64.152697681798
field sqrsum 0.041094059892204
field min 8.992e-006
field max 0.001252078145
statistic Basic.rack[2].node[2].app 	hops
field count 142042
field mean 4.4696709423973
field stddev 1.1331782383146
field sum 634881
field sqrsum 3020103
field min 3
field max 6
statistic Basic.rack[2].node[3].app 	throughput
field count 141172
field mean 70586.5
field stddev 40752.990438331
field sum 9964837378
field sqrsum 9.3784066983047e+014
field min 1
field max 141172
statistic Basic.rack[2].node[3].app 	"End-to-End Delay"
field count 141172
field mean 0.00045245484575591
field stddev 0.00029234274048898
field sum 63.873955485054
field sqrsum 0.040965158254576
field min 8.992e-006
field max 0.001252373004
statistic Basic.rack[2].node[3].app 	hops
field count 141172
field mean 4.4713753435525
field stddev 1.1309902615077
field sum 631233
field sqrsum 3003057
field min 3
field max 6
statistic Basic.rack[2].node[4].app 	throughput
field count 141899
field mean 70950
field stddev 40962.857261182
field sum 10067734050
field sqrsum 9.5240428521865e+014
field min 1
field max 141899
statistic Basic.rack[2].node[4].app 	"End-to-End Delay"
field count 141899
field mean 0.00045269049396436
field stddev 0.00029272908607961
field sum 64.236328403049
field sqrsum 0.041238459955668
field min 8.992e-006
field max 0.001252270111
statistic Basic.rack[2].node[4].app 	hops
field count 141899
field mean 4.4701583520673
field stddev 1.1300150591458
field sum 634311
field sqrsum 3016665
field min 3
field max 6
statistic Basic.rack[2].node[5].app 	throughput
field count 141622
field mean 70811.5
field stddev 40882.894248899
field sum 10028466253
field sqrsum 9.46837641277e+014
field min 1
field max 141622
statistic Basic.rack[2].node[5].app 	"End-to-End Delay"
field count 141622
field mean 0.00045232146478715
field stddev 0.00029139324788452
field sum 64.058670486086
field sqrsum 0.041000154304743
field min 8.992e-006
field max 0.001252213146
statistic Basic.rack[2].node[5].app 	hops
field count 141622
field mean 4.4777576930138
field stddev 1.1301736454475
field sum 634149
field sqrsum 3020457
field min 3
field max 6
statistic Basic.rack[2].node[6].app 	throughput
field count 141929
field mean 70965
field stddev 40971.51751522
field sum 10071991485
field sqrsum 9.530084769802e+014
field min 1
field max 141929
statistic Basic.rack[2].node[6].app 	"End-to-End Delay"
field count 141929
field mean 0.00045195417255706
field stddev 0.00029130322300865
field sum 64.145403756851
field sqrsum 0.041034447751791
field min 8.992e-006
field max 0.001252273491
statistic Basic.rack[2].node[6].app 	hops
field count 141929
field mean 4.4779361511742
field stddev 1.1302596489438
field sum 635549
field sqrsum 3027259
field min 3
field max 6
statistic Basic.rack[2].node[7].app 	throughput
field count 141843
field mean 70922
field stddev 40946.691453645
field sum 10059789246
field sqrsum 9.5127714394333e+014
field min 1
field max 141843
statistic Basic.rack[2].node[7].app 	"End-to-End Delay"
field count 141843
field mean 0.00045224494454249
field stddev 0.00029205598578815
field sum 64.147779668741
field sqrsum 0.041109163414924
field min 8.992e-006
field max 0.001251981906
statistic Basic.rack[2].node[7].app 	hops
field count 141843
field mean 4.4754411567719
field stddev 1.1300909284732
field sum 634810
field sqrsum 3022202
field min 3
field max 6
statistic Basic.rack[2].node[8].app 	throughput
field count 141610
field mean 70805.5
field stddev 40879.430147284
field sum 10026766855
field sqrsum 9.4659697847998e+014
field min 1
field max 141610
statistic Basic.rack[2].node[8].app 	"End-to-End Delay"
field count 141610
field mean 0.00045366083683474
field stddev 0.00029340723944331
field sum 64.242911104168
field sqrsum 0.041335301237627
field min 8.992e-006
field max 0.001252317516
statistic Basic.rack[2].node[8].app 	hops
field count 141610
field mean 4.4739566414801
field stddev 1.1304058809859
field sum 633557
field sqrsum 3015457
field min 3
field max 6
statistic Basic.rack[2].node[9].app 	throughput
field count 141631
field mean 70816
field stddev 40885.49232511
field sum 10029740896
field sqrsum 9.4701816514122e+014
field min 1
field max 141631
statistic Basic.rack[2].node[9].app 	"End-to-End Delay"
field count 141631
field mean 0.00045347034903617
field stddev 0.00029289981160011
field sum 64.225459004341
field sqrsum 0.041274821449066
field min 8.992e-006
field max 0.001252361509
statistic Basic.rack[2].node[9].app 	hops
field count 141631
field mean 4.4699606724517
field stddev 1.1314131232432
field sum 633085
field sqrsum 3011165
field min 3
field max 6
statistic Basic.rack[2].eps.queue[0] 	dropsum
field count 0
field mean nan
field stddev nan
field sum 0
field sqrsum 0
field min nan
field max nan
statistic Basic.rack[2].eps.queue[1] 	dropsum
field count 269882
field mean 134941.5
field stddev 77908.367012151
field sum 36418281903
field sqrsum 6.5524379771243e+015
field min 1
field max 269882
statistic Basic.rack[2].eps.queue[2] 	dropsum
field count 0
field mean nan
field stddev nan
field sum 0
field sqrsum 0
field min nan
field max nan
statistic Basic.rack[2].eps.queue[3] 	dropsum
field count 0
field mean nan
field stddev nan
field sum 0
field sqrsum 0
field min nan
field max nan
statistic Basic.rack[3].node[0].app 	throughput
field count 155702
field mean 77851.5
field stddev 44947.440144017
field sum 12121634253
field sqrsum 1.2582458381852e+015
field min 1
field max 155702
statistic Basic.rack[3].node[0].app 	"End-to-End Delay"
field count 155702
field mean 0.00029437656606469
field stddev 0.00019227947616289
field sum 45.835020089404
field sqrsum 0.019249239296478
field min 8.992e-006
field max 0.000739176549
statistic Basic.rack[3].node[0].app 	hops
field count 155702
field mean 4.5241936519762
field stddev 1.1126444528484
field sum 704426
field sqrsum 3379714
field min 3
field max 6
statistic Basic.rack[3].node[1].app 	throughput
field count 155859
field mean 77930
field stddev 44992.762140149
field sum 12146091870
field sqrsum 1.2620558705415e+015
field min 1
field max 155859
statistic Basic.rack[3].node[1].app 	"End-to-End Delay"
field count 155859
field mean 0.00029671005660682
field stddev 0.00019145422156911
field sum 46.244932712683
field sqrsum 0.019434267790102
field min 8.992e-006
field max 0.00066210856
statistic Basic.rack[3].node[1].app 	hops
field count 155859
field mean 4.5386727747515
field stddev 1.1104247916298
field sum 707393
field sqrsum 3402805
field min 3
field max 6
statistic Basic.rack[3].node[2].app 	throughput
field count 155970
field mean 77985.5
field stddev 45024.805080089
field sum 12163398435
field sqrsum 1.2647542237374e+015
field min 1
field max 155970
statistic Basic.rack[3].node[2].app 	"End-to-End Delay"
field count 155970
field mean 0.00029528435761213
field stddev 0.00019199234456213
field sum 46.055501256764
field sqrsum 0.019348651828029
field min 8.992e-006
field max 0.000664656342
statistic Basic.rack[3].node[2].app 	hops
field count 155970
field mean 4.5303584022568
field stddev 1.112611642367
field sum 706600
field sqrsum 3394226
field min 3
field max 6
statistic Basic.rack[3].node[3].app 	throughput
field count 157013
field mean 78507
field stddev 45325.893245473
field sum 12326619591
field sqrsum 1.2902971234343e+015
field min 1
field max 157013
statistic Basic.rack[3].node[3].app 	"End-to-End Delay"
field count 157013
field mean 0.00029520470256682
field stddev 0.00019196481510102
field sum 46.350975964124
field sqrsum 0.019468995246227
field min 8.992e-006
field max 0.000705279152
statistic Basic.rack[3].node[3].app 	hops
field count 157013
field mean 4.5299051670881
field stddev 1.1120933072411
field sum 711254
field sqrsum 3416098
field min 3
field max 6
statistic Basic.rack[3].node[4].app 	throughput
field count 155844
field mean 77922.5
field stddev 44988.43201313
field sum 12143754090
field sqrsum 1.2616915228527e+015
field min 1
field max 155844
statistic Basic.rack[3].node[4].app 	"End-to-End Delay"
field count 155844
field mean 0.00029516242577473
field stddev 0.00019205391095064
field sum 45.999293082437
field sqrsum 0.019325485966479
field min 8.992e-006
field max 0.000677358815
statistic Basic.rack[3].node[4].app 	hops
field count 155844
field mean 4.5306524473191
field stddev 1.1136890098505
field sum 706075
field sqrsum 3392273
field min 3
field max 6
statistic Basic.rack[3].node[5].app 	throughput
field count 156134
field mean 78067.5
field stddev 45072.147802163
field sum 12188991045
field sqrsum 1.268748014877e+015
field min 1
field max 156134
statistic Basic.rack[3].node[5].app 	"End-to-End Delay"
field count 156134
field mean 0.00029578999047831
field stddev 0.00019174817020633
field sum 46.182874373341
field sqrsum 0.019401030311421
field min 8.992e-006
field max 0.000723149487
statistic Basic.rack[3].node[5].app 	hops
field count 156134
field mean 4.5340604865052
field stddev 1.1121585015875
field sum 707921
field sqrsum 3402877
field min 3
field max 6
statistic Basic.rack[3].node[6].app 	throughput
field count 155070
field mean 77535.5
field stddev 44764.997458952
field sum 12023429985
field sqrsum 1.2429861996593e+015
field min 1
field max 155070
statistic Basic.rack[3].node[6].app 	"End-to-End Delay"
field count 155070
field mean 0.00029533335123232
field stddev 0.00019194056071393
field sum 45.797342775596
field sqrsum 0.019238407482105
field min 8.992e-006
field max 0.000716586265
statistic Basic.rack[3].node[6].app 	hops
field count 155070
field mean 4.5306635712904
field stddev 1.1124987760056
field sum 702570
field sqrsum 3375030
field min 3
field max 6
statistic Basic.rack[3].node[7].app 	throughput
field count 154893
field mean 77447
field stddev 44713.901960129
field sum 11995998171
field sqrsum 1.2387347617999e+015
field min 1
field max 154893
statistic Basic.rack[3].node[7].app 	"End-to-End Delay"
field count 154893
field mean 0.00029477754681115
field stddev 0.00019216590518977
field sum 45.658978558219
field sqrsum 0.019179052437099
field min 8.992e-006
field max 0.000679214177
statistic Basic.rack[3].node[7].app 	hops
field count 154893
field mean 4.5269314946447
field stddev 1.1129463350275
field sum 701190
field sqrsum 3366096
field min 3
field max 6
statistic Basic.rack[3].node[8].app 	throughput
field count 155486
field mean 77743.5
field stddev 44885.086314944
field sum 12088025841
field sqrsum 1.2530165532844e+015
field min 1
field max 155486
statistic Basic.rack[3].node[8].app 	"End-to-End Delay"
field count 155486
field mean 0.00029486812270274
field stddev 0.00019207178817378
field sum 45.847864926558
field sqrsum 0.019255159904054
field min 8.992e-006
field max 0.000720423925
statistic Basic.rack[3].node[8].app 	hops
field count 155486
field mean 4.5284784482204
field stddev 1.1133738056862
field sum 704115
field sqrsum 3381309
field min 3
field max 6
statistic Basic.rack[3].node[9].app 	throughput
field count 155881
field mean 77941
field stddev 44999.11299311
field sum 12149521021
field sqrsum 1.2625903740233e+015
field min 1
field max 155881
statistic Basic.rack[3].node[9].app 	"End-to-End Delay"
field count 155881
field mean 0.00029519754467511
field stddev 0.00019206974967192
field sum 46.015688461501
field sqrsum 0.01933425439901
field min 8.992e-006
field max 0.000685191667
statistic Basic.rack[3].node[9].app 	hops
field count 155881
field mean 4.5298657309101
field stddev 1.112815247823
field sum 706120
field sqrsum 3391664
field min 3
field max 6
statistic Basic.rack[3].eps.queue[0] 	dropsum
field count 0
field mean nan
field stddev nan
field sum 0
field sqrsum 0
field min nan
field max nan
statistic Basic.rack[3].eps.queue[1] 	dropsum
field count 0
field mean nan
field stddev nan
field sum 0
field sqrsum 0
field min nan
field max nan
statistic Basic.rack[3].eps.queue[2] 	dropsum
field count 0
field mean nan
field stddev nan
field sum 0
field sqrsum 0
field min nan
field max nan
statistic Basic.rack[3].eps.queue[3] 	dropsum
field count 0
field mean nan
field stddev nan
field sum 0
field sqrsum 0
field min nan
field max nan
statistic Basic.rack[4].node[0].app 	throughput
field count 133630
field mean 66815.5
field stddev 38575.802573202
field sum 8928555265
field sqrsum 7.9541820289306e+014
field min 1
field max 133630
statistic Basic.rack[4].node[0].app 	"End-to-End Delay"
field count 133630
field mean 0.00041074126318187
field stddev 0.0003360874386916
field sum 54.887354998993
field sqrsum 0.037638534010448
field min 8.992e-006
field max 0.000835706979
statistic Basic.rack[4].node[0].app 	hops
field count 133630
field mean 4.0813963930255
field stddev 1.4404119364199
field sum 545397
field sqrsum 2503233
field min 3
field max 6
statistic Basic.rack[4].node[1].app 	throughput
field count 133781
field mean 66891
field stddev 38619.392518526
field sum 8948744871
field sqrsum 7.9811767463979e+014
field min 1
field max 133781
statistic Basic.rack[4].node[1].app 	"End-to-End Delay"
field count 133781
field mean 0.00041191471613788
field stddev 0.00033631860145866
field sum 55.106362639642
field sqrsum 0.0378310045058
field min 8.992e-006
field max 0.000835702225
statistic Basic.rack[4].node[1].app 	hops
field count 133781
field mean 4.0876208131199
field stddev 1.442206279878
field sum 546846
field sqrsum 2513556
field min 3
field max 6
statistic Basic.rack[4].node[2].app 	throughput
field count 133668
field mean 66834.5
field stddev 38586.772228317
field sum 8933633946
field sqrsum 7.9609696607393e+014
field min 1
field max 133668
statistic Basic.rack[4].node[2].app 	"End-to-End Delay"
field count 133668
field mean 0.00041376891585481
field stddev 0.00033694140590433
field sum 55.307663444481
field sqrsum 0.038059741090432
field min 8.992e-006
field max 0.000835703717
statistic Basic.rack[4].node[2].app 	hops
field count 133668
field mean 4.0977870544932
field stddev 1.4450745202434
field sum 547743
field sqrsum 2523663
field min 3
field max 6
statistic Basic.rack[4].node[3].app 	throughput
field count 133625
field mean 66813
field stddev 38574.359197529
field sum 8927887125
field sqrsum 7.9532892068112e+014
field min 1
field max 133625
statistic Basic.rack[4].node[3].app 	"End-to-End Delay"
field count 133625
field mean 0.00041193651182371
field stddev 0.00033608006942406
field sum 55.045016392443
field sqrsum 0.037767857866856
field min 8.992e-006
field max 0.000835801008
statistic Basic.rack[4].node[3].app 	hops
field count 133625
field mean 4.0856127221703
field stddev 1.4416305827745
field sum 545940
field sqrsum 2508210
field min 3
field max 6
statistic Basic.rack[4].node[4].app 	throughput
field count 134247
field mean 67124
field stddev 38753.915131248
field sum 9011195628
field sqrsum 8.0648699004662e+014
field min 1
field max 134247
statistic Basic.rack[4].node[4].app 	"End-to-End Delay"
field count 134247
field mean 0.00041172902615085
field stddev 0.00033673894093138
field sum 55.273386573674
field sqrsum 0.03798022965367
field min 8.992e-006
field max 0.000835702332
statistic Basic.rack[4].node[4].app 	hops
field count 134247
field mean 4.0892980848734
field stddev 1.4426848029689
field sum 548976
field sqrsum 2524338
field min 3
field max 6
statistic Basic.rack[4].node[5].app 	throughput
field count 133629
field mean 66815
field stddev 38575.513898068
field sum 8928421635
field sqrsum 7.9540034591616e+014
field min 1
field max 133629
statistic Basic.rack[4].node[5].app 	"End-to-End Delay"
field count 133629
field mean 0.00041036547347138
field stddev 0.00033594648531582
field sum 54.836727854507
field sqrsum 0.037584361347856
field min 8.992e-006
field max 0.000835801682
statistic Basic.rack[4].node[5].app 	hops
field count 133629
field mean 4.0795186673551
field stddev 1.4398649115718
field sum 545142
field sqrsum 2500956
field min 3
field max 6
statistic Basic.rack[4].node[6].app 	throughput
field count 133504
field mean 66752.5
field stddev 38539.429506243
field sum 8911725760
field sqrsum 7.9317032781728e+014
field min 1
field max 133504
statistic Basic.rack[4].node[6].app 	"End-to-End Delay"
field count 133504
field mean 0.00041154280119911
field stddev 0.00033644364710887
field sum 54.942610131286
field sqrsum 0.037723018006872
field min 8.992e-006
field max 0.000835702299
statistic Basic.rack[4].node[6].app 	hops
field count 133504
field mean 4.0877651605944
field stddev 1.4422475577453
field sum 545733
field sqrsum 2508525
field min 3
field max 6
statistic Basic.rack[4].node[7].app 	throughput
field count 133938
field mean 66969.5
field stddev 38664.714514658
field sum 8969760891
field sqrsum 8.0093087939947e+014
field min 1
field max 133938
statistic Basic.rack[4].node[7].app 	"End-to-End Delay"
field count 133938
field mean 0.00041191292971473
field stddev 0.00033638486674482
field sum 55.170793980131
field sqrsum 0.037881174961033
field min 8.992e-006
field max 0.000835763777
statistic Basic.rack[4].node[7].app 	hops
field count 133938
field mean 4.0874210455584
field stddev 1.44214913736
field sum 547461
field sqrsum 2516265
field min 3
field max 6
statistic Basic.rack[4].node[8].app 	throughput
field count 133651
field mean 66826
field stddev 38581.864751029
field sum 8931361726
field sqrsum 7.9579326114833e+014
field min 1
field max 133651
statistic Basic.rack[4].node[8].app 	"End-to-End Delay"
field count 133651
field mean 0.00041166932464039
field stddev 0.0003367678551858
field sum 55.020016907513
field sqrsum 0.037807645626502
field min 8.992e-006
field max 0.000835790352
statistic Basic.rack[4].node[8].app 	hops
field count 133651
field mean 4.0885215972944
field stddev 1.4424635497211
field sum 546435
field sqrsum 2512197
field min 3
field max 6
statistic Basic.rack[4].node[9].app 	throughput
field count 134387
field mean 67194
field stddev 38794.329650092
field sum 9030000078
field sqrsum 8.0901275698815e+014
field min 1
field max 134387
statistic Basic.rack[4].node[9].app 	"End-to-End Delay"
field count 134387
field mean 0.00041120104676899
field stddev 0.0003361916311022
field sum 55.260075072145
field sqrsum 0.037911953210252
field min 8.992e-006
field max 0.000835858352
statistic Basic.rack[4].node[9].app 	hops
field count 134387
field mean 4.0835869540953
field stddev 1.4410467125337
field sum 548781
field sqrsum 2520063
field min 3
field max 6
statistic Basic.rack[4].eps.queue[0] 	dropsum
field count 0
field mean nan
field stddev nan
field sum 0
field sqrsum 0
field min nan
field max nan
statistic Basic.rack[4].eps.queue[1] 	dropsum
field count 970422
field mean 485211.5
field stddev 280136.84580048
field sum 470859914253
field sqrsum 3.0462203675901e+017
field min 1
field max 970422
statistic Basic.rack[4].eps.queue[2] 	dropsum
field count 0
field mean nan
field stddev nan
field sum 0
field sqrsum 0
field min nan
field max nan
statistic Basic.rack[4].eps.queue[3] 	dropsum
field count 0
field mean nan
field stddev nan
field sum 0
field sqrsum 0
field min nan
field max nan
statistic Basic.rack[5].node[0].app 	throughput
field count 111979
field mean 55990
field stddev 32325.697234038
field sum 6269704210
field sqrsum 4.6805222838913e+014
field min 1
field max 111979
statistic Basic.rack[5].node[0].app 	"End-to-End Delay"
field count 111979
field mean 0.00036757401086985
field stddev 0.0003417736684245
field sum 41.160570163194
field sqrsum 0.028209620989259
field min 8.992e-006
field max 0.000837233369
statistic Basic.rack[5].node[0].app 	hops
field count 111979
field mean 3.9149572687736
field stddev 1.3812103530037
field sum 438393
field sqrsum 1929915
field min 3
field max 6
statistic Basic.rack[5].node[1].app 	throughput
field count 111979
field mean 55990
field stddev 32325.697234038
field sum 6269704210
field sqrsum 4.6805222838913e+014
field min 1
field max 111979
statistic Basic.rack[5].node[1].app 	"End-to-End Delay"
field count 111979
field mean 0.00036756718073643
field stddev 0.00034174675136741
field sum 41.159805331685
field sqrsum 0.028206998518762
field min 8.992e-006
field max 0.000837233233
statistic Basic.rack[5].node[1].app 	hops
field count 111979
field mean 3.9149036872985
field stddev 1.3811876559355
field sum 438387
field sqrsum 1929861
field min 3
field max 6
statistic Basic.rack[5].node[2].app 	throughput
field count 111823
field mean 55912
field stddev 32280.66391304
field sum 6252247576
field sqrsum 4.6609880454322e+014
field min 1
field max 111823
statistic Basic.rack[5].node[2].app 	"End-to-End Delay"
field count 111823
field mean 0.00036778051569057
field stddev 0.00034205672747556
field sum 41.126320606067
field sqrsum 0.028208947040563
field min 8.992e-006
field max 0.000837233347
statistic Basic.rack[5].node[2].app 	hops
field count 111823
field mean 3.9169848778874
field stddev 1.3820674545551
field sum 438009
field sqrsum 1929267
field min 3
field max 6
statistic Basic.rack[5].node[3].app 	throughput
field count 112447
field mean 56224
field stddev 32460.797197029
field sum 6322220128
field sqrsum 4.7394523189552e+014
field min 1
field max 112447
statistic Basic.rack[5].node[3].app 	"End-to-End Delay"
field count 112447
field mean 0.00036682455831296
field stddev 0.00034158259345807
field sum 41.248321108617
field sqrsum 0.028250946691012
field min 8.992e-006
field max 0.000837233334
statistic Basic.rack[5].node[3].app 	hops
field count 112447
field mean 3.9113360071856
field stddev 1.3796708417098
field sum 439818
field sqrsum 1934316
field min 3
field max 6
statistic Basic.rack[5].node[4].app 	throughput
field count 112180
field mean 56090.5
field stddev 32383.720936092
field sum 6292232290
field sqrsum 4.7057717627223e+014
field min 1
field max 112180
statistic Basic.rack[5].node[4].app 	"End-to-End Delay"
field count 112180
field mean 0.0003676636793667
field stddev 0.00034194731947504
field sum 41.244511551357
field sqrsum 0.028280971538329
field min 8.992e-006
field max 0.000837232997
statistic Basic.rack[5].node[4].app 	hops
field count 112180
field mean 3.916099126404
field stddev 1.3816934492831
field sum 439308
field sqrsum 1934532
field min 3
field max 6
statistic Basic.rack[5].node[5].app 	throughput
field count 111991
field mean 55996
field stddev 32329.161335653
field sum 6271048036
field sqrsum 4.682027174158e+014
field min 1
field max 111991
statistic Basic.rack[5].node[5].app 	"End-to-End Delay"
field count 111991
field mean 0.00036758702374013
field stddev 0.00034257213773142
field sum 41.166438375681
field sqrsum 0.028274909993389
field min 8.992e-006
field max 0.000837233495
statistic Basic.rack[5].node[5].app 	hops
field count 111991
field mean 3.9194399549964
field stddev 1.3831005442778
field sum 438942
field sqrsum 1934640
field min 3
field max 6
statistic Basic.rack[5].node[6].app 	throughput
field count 112407
field mean 56204
field stddev 32449.250191645
field sum 6317723028
field sqrsum 4.7343963417994e+014
field min 1
field max 112407
statistic Basic.rack[5].node[6].app 	"End-to-End Delay"
field count 112407
field mean 0.00036957786566898
field stddev 0.00034195192673938
field sum 41.543139146253
field sqrsum 0.02849718419615
field min 8.992e-006
field max 0.000837232938
statistic Basic.rack[5].node[6].app 	hops
field count 112407
field mean 3.9213216258774
field stddev 1.383888860042
field sum 440784
field sqrsum 1943730
field min 3
field max 6
statistic Basic.rack[5].node[7].app 	throughput
field count 111667
field mean 55834
field stddev 32235.630592043
field sum 6234815278
field sqrsum 4.6415082337071e+014
field min 1
field max 111667
statistic Basic.rack[5].node[7].app 	"End-to-End Delay"
field count 111667
field mean 0.00036710208099026
field stddev 0.00034200086307583
field sum 40.993188077939
field sqrsum 0.028109652595258
field min 8.992e-006
field max 0.00083723307
statistic Basic.rack[5].node[7].app 	hops
field count 111667
field mean 3.9146659263704
field stddev 1.3810869282565
field sum 437139
field sqrsum 1924245
field min 3
field max 6
statistic Basic.rack[5].node[8].app 	throughput
field count 111842
field mean 55921.5
field stddev 32286.148740598
field sum 6254372403
field sqrsum 4.6633643032168e+014
field min 1
field max 111842
statistic Basic.rack[5].node[8].app 	"End-to-End Delay"
field count 111842
field mean 0.0003686480357196
field stddev 0.00034188053843821
field sum 41.230333610951
field sqrsum 0.028271715098667
field min 8.992e-006
field max 0.000837233407
statistic Basic.rack[5].node[8].app 	hops
field count 111842
field mean 3.9183848643622
field stddev 1.3826571980162
field sum 438240
field sqrsum 1931004
field min 3
field max 6
statistic Basic.rack[5].node[9].app 	throughput
field count 111943
field mean 55972
field stddev 32315.304929192
field sum 6265673596
field sqrsum 4.6760095479588e+014
field min 1
field max 111943
statistic Basic.rack[5].node[9].app 	"End-to-End Delay"
field count 111943
field mean 0.00036723246871264
field stddev 0.00034194807465614
field sum 41.109104245099
field sqrsum 0.028185806391555
field min 8.992e-006
field max 0.000837233397
statistic Basic.rack[5].node[9].app 	hops
field count 111943
field mean 3.9147155248653
field stddev 1.3811079330462
field sum 438225
field sqrsum 1929051
field min 3
field max 6
statistic Basic.rack[5].eps.queue[0] 	dropsum
field count 455513
field mean 227757
field stddev 131495.42092153
field sum 103746274341
field sqrsum 3.1505219024608e+016
field min 1
field max 455513
statistic Basic.rack[5].eps.queue[1] 	dropsum
field count 0
field mean nan
field stddev nan
field sum 0
field sqrsum 0
field min nan
field max nan
statistic Basic.rack[5].eps.queue[2] 	dropsum
field count 0
field mean nan
field stddev nan
field sum 0
field sqrsum 0
field min nan
field max nan
statistic Basic.rack[5].eps.queue[3] 	dropsum
field count 0
field mean nan
field stddev nan
field sum 0
field sqrsum 0
field min nan
field max nan
statistic Basic.rack[6].node[0].app 	throughput
field count 149642
field mean 74821.5
field stddev 43198.068828363
field sum 11196438903
field sqrsum 1.1169754056948e+015
field min 1
field max 149642
statistic Basic.rack[6].node[0].app 	"End-to-End Delay"
field count 149642
field mean 0.0003052922901952
field stddev 0.00019356441591463
field sum 45.68454888939
field sqrsum 0.019553767304497
field min 8.992e-006
field max 0.000877022895
statistic Basic.rack[6].node[0].app 	hops
field count 149642
field mean 4.5176487884417
field stddev 1.1361081692808
field sum 676030
field sqrsum 3247214
field min 3
field max 6
statistic Basic.rack[6].node[1].app 	throughput
field count 149174
field mean 74587.5
field stddev 43062.968865372
field sum 11126515725
field sqrsum 1.1065282800127e+015
field min 1
field max 149174
statistic Basic.rack[6].node[1].app 	"End-to-End Delay"
field count 149174
field mean 0.00030548216269003
field stddev 0.00019328260528236
field sum 45.569996137123
field sqrsum 0.019493650596583
field min 8.992e-006
field max 0.000846791158
statistic Basic.rack[6].node[1].app 	hops
field count 149174
field mean 4.5198224891737
field stddev 1.136948866346
field sum 674240
field sqrsum 3240274
field min 3
field max 6
statistic Basic.rack[6].node[2].app 	throughput
field count 149018
field mean 74509.5
field stddev 43017.935544375
field sum 11103256671
field sqrsum 1.1030604361516e+015
field min 1
field max 149018
statistic Basic.rack[6].node[2].app 	"End-to-End Delay"
field count 149018
field mean 0.00030578496989242
field stddev 0.00019329209782141
field sum 45.567464643428
field sqrsum 0.019501394382211
field min 8.992e-006
field max 0.000830519849
statistic Basic.rack[6].node[2].app 	hops
field count 149018
field mean 4.5194406044907
field stddev 1.1347775388164
field sum 673478
field sqrsum 3235636
field min 3
field max 6
statistic Basic.rack[6].node[3].app 	throughput
field count 149510
field mean 74755.5
field stddev 43159.963710596
field sum 11176694805
field sqrsum 1.1140221524286e+015
field min 1
field max 149510
statistic Basic.rack[6].node[3].app 	"End-to-End Delay"
field count 149510
field mean 0.00030548101108773
field stddev 0.0001932598926526
field sum 45.672465967726
field sqrsum 0.019536140450326
field min 8.992e-006
field max 0.000850659249
statistic Basic.rack[6].node[3].app 	hops
field count 149510
field mean 4.5171092234633
field stddev 1.1351487976992
field sum 675353
field sqrsum 3243295
field min 3
field max 6
statistic Basic.rack[6].node[4].app 	throughput
field count 149983
field mean 74992
field stddev 43296.507049261
field sum 11247525136
field sqrsum 1.1246287908235e+015
field min 1
field max 149983
statistic Basic.rack[6].node[4].app 	"End-to-End Delay"
field count 149983
field mean 0.0003056104341783
field stddev 0.00019328737723136
field sum 45.836369749364
field sqrsum 0.019611401909623
field min 8.992e-006
field max 0.000814987897
statistic Basic.rack[6].node[4].app 	hops
field count 149983
field mean 4.5181587246555
field stddev 1.1348758454584
field sum 677647
field sqrsum 3254885
field min 3
field max 6
statistic Basic.rack[6].node[5].app 	throughput
field count 149326
field mean 74663.5
field stddev 43106.847485831
field sum 11149201801
field sqrsum 1.1099141884914e+015
field min 1
field max 149326
statistic Basic.rack[6].node[5].app 	"End-to-End Delay"
field count 149326
field mean 0.00030601136597603
field stddev 0.00019321946333344
field sum 45.695453235737
field sqrsum 0.019558191926509
field min 8.992e-006
field max 0.000879397795
statistic Basic.rack[6].node[5].app 	hops
field count 149326
field mean 4.5200166079584
field stddev 1.134768308985
field sum 674956
field sqrsum 3243098
field min 3
field max 6
statistic Basic.rack[6].node[6].app 	throughput
field count 149584
field mean 74792.5
field stddev 43181.325670557
field sum 11187761320
field sqrsum 1.1156771221144e+015
field min 1
field max 149584
statistic Basic.rack[6].node[6].app 	"End-to-End Delay"
field count 149584
field mean 0.00030502121420646
field stddev 0.00019382326305941
field sum 45.626293305859
field sqrsum 0.019536440349647
field min 8.992e-006
field max 0.000802319967
statistic Basic.rack[6].node[6].app 	hops
field count 149584
field mean 4.5164924056049
field stddev 1.1371794584107
field sum 675595
field sqrsum 3244757
field min 3
field max 6
statistic Basic.rack[6].node[7].app 	throughput
field count 150279
field mean 75140
field stddev 43381.954889101
field sum 11291964060
field sqrsum 1.1313004753032e+015
field min 1
field max 150279
statistic Basic.rack[6].node[7].app 	"End-to-End Delay"
field count 150279
field mean 0.0003060823145973
field stddev 0.00019335603424331
field sum 45.997744155367
field sqrsum 0.019697472856636
field min 8.992e-006
field max 0.000807340673
statistic Basic.rack[6].node[7].app 	hops
field count 150279
field mean 4.524131781553
field stddev 1.1369517047569
field sum 679882
field sqrsum 3270134
field min 3
field max 6
statistic Basic.rack[6].node[8].app 	throughput
field count 149289
field mean 74645
field stddev 43096.166505851
field sum 11143677405
field sqrsum 1.1090893519692e+015
field min 1
field max 149289
statistic Basic.rack[6].node[8].app 	"End-to-End Delay"
field count 149289
field mean 0.00030469046550165
field stddev 0.00019360477695833
field sum 45.486934904276
field sqrsum 0.019455169058911
field min 8.992e-006
field max 0.000872289817
statistic Basic.rack[6].node[8].app 	hops
field count 149289
field mean 4.5143580571911
field stddev 1.137025258967
field sum 673944
field sqrsum 3235428
field min 3
field max 6
statistic Basic.rack[6].node[9].app 	throughput
field count 150018
field mean 75009.5
field stddev 43306.610678971
field sum 11252775171
field sqrsum 1.1254163013271e+015
field min 1
field max 150018
statistic Basic.rack[6].node[9].app 	"End-to-End Delay"
field count 150018
field mean 0.0003052366145229
field stddev 0.00019339494007993
field sum 45.790986437497
field sqrsum 0.019587961930372
field min 8.992e-006
field max 0.000855898016
statistic Basic.rack[6].node[9].app 	hops
field count 150018
field mean 4.5184577850658
field stddev 1.1366190450766
field sum 677850
field sqrsum 3256644
field min 3
field max 6
statistic Basic.rack[6].eps.queue[0] 	dropsum
field count 0
field mean nan
field stddev nan
field sum 0
field sqrsum 0
field min nan
field max nan
statistic Basic.rack[6].eps.queue[1] 	dropsum
field count 132463
field mean 66232
field stddev 38238.918691128
field sum 8773289416
field sqrsum 7.7476041503754e+014
field min 1
field max 132463
statistic Basic.rack[6].eps.queue[2] 	dropsum
field count 0
field mean nan
field stddev nan
field sum 0
field sqrsum 0
field min nan
field max nan
statistic Basic.rack[6].eps.queue[3] 	dropsum
field count 0
field mean nan
field stddev nan
field sum 0
field sqrsum 0
field min nan
field max nan
statistic Basic.rack[7].node[0].app 	throughput
field count 153525
field mean 76763
field stddev 44318.994376001
field sum 11785039575
field sqrsum 1.2062027288478e+015
field min 1
field max 153525
statistic Basic.rack[7].node[0].app 	"End-to-End Delay"
field count 153525
field mean 0.00036402071269558
field stddev 0.00032028799030411
field sum 55.886279916589
field sqrsum 0.036092930369185
field min 8.992e-006
field max 0.000956320936
statistic Basic.rack[7].node[0].app 	hops
field count 153525
field mean 4.5584106822993
field stddev 1.131983065649
field sum 699830
field sqrsum 3386836
field min 3
field max 6
statistic Basic.rack[7].node[1].app 	throughput
field count 152346
field mean 76173.5
field stddev 43978.646392312
field sum 11604728031
field sqrsum 1.1786264659832e+015
field min 1
field max 152346
statistic Basic.rack[7].node[1].app 	"End-to-End Delay"
field count 152346
field mean 0.00036289715812641
field stddev 0.00032025328415582
field sum 55.285930451926
field sqrsum 0.035687940226566
field min 8.992e-006
field max 0.000953418316
statistic Basic.rack[7].node[1].app 	hops
field count 152346
field mean 4.558905386423
field stddev 1.1297285543294
field sum 694531
field sqrsum 3360737
field min 3
field max 6
statistic Basic.rack[7].node[2].app 	throughput
field count 153353
field mean 76677
field stddev 44269.34225285
field sum 11758647981
field sqrsum 1.2021532154362e+015
field min 1
field max 153353
statistic Basic.rack[7].node[2].app 	"End-to-End Delay"
field count 153353
field mean 0.00036428841417741
field stddev 0.00032061030427421
field sum 55.864721179348
field sqrsum 0.036114071089985
field min 8.992e-006
field max 0.000941082739
statistic Basic.rack[7].node[2].app 	hops
field count 153353
field mean 4.561880106682
field stddev 1.130680368137
field sum 699578
field sqrsum 3387442
field min 3
field max 6
statistic Basic.rack[7].node[3].app 	throughput
field count 153025
field mean 76513
field stddev 44174.656808703
field sum 11708401825
field sqrsum 1.194456028981e+015
field min 1
field max 153025
statistic Basic.rack[7].node[3].app 	"End-to-End Delay"
field count 153025
field mean 0.00036336930901909
field stddev 0.00032050911965413
field sum 55.604588512646
field sqrsum 0.035924558986993
field min 8.992e-006
field max 0.000966877571
statistic Basic.rack[7].node[3].app 	hops
field count 153025
field mean 4.5633131841202
field stddev 1.1307125290016
field sum 698301
field sqrsum 3382209
field min 3
field max 6
statistic Basic.rack[7].node[4].app 	throughput
field count 153838
field mean 76919.5
field stddev 44409.34969313
field sum 11833142041
field sqrsum 1.2135952145829e+015
field min 1
field max 153838
statistic Basic.rack[7].node[4].app 	"End-to-End Delay"
field count 153838
field mean 0.00036302814988435
field stddev 0.00032004358431647
field sum 55.847524521909
field sqrsum 0.036031423718553
field min 8.992e-006
field max 0.000942647031
statistic Basic.rack[7].node[4].app 	hops
field count 153838
field mean 4.5574695458859
field stddev 1.131181378398
field sum 701112
field sqrsum 3392142
field min 3
field max 6
statistic Basic.rack[7].node[5].app 	throughput
field count 153429
field mean 76715
field stddev 44291.28156308
field sum 11770305735
field sqrsum 1.2039414158455e+015
field min 1
field max 153429
statistic Basic.rack[7].node[5].app 	"End-to-End Delay"
field count 153429
field mean 0.00036325786167358
field stddev 0.00032077162630422
field sum 55.734290458715
field sqrsum 0.036032806737642
field min 8.992e-006
field max 0.000968458707
statistic Basic.rack[7].node[5].app 	hops
field count 153429
field mean 4.5645933949905
field stddev 1.1296737324845
field sum 700341
field sqrsum 3392571
field min 3
field max 6
statistic Basic.rack[7].node[6].app 	throughput
field count 152403
field mean 76202
field stddev 43995.100874984
field sum 11613413406
field sqrsum 1.1799499000142e+015
field min 1
field max 152403
statistic Basic.rack[7].node[6].app 	"End-to-End Delay"
field count 152403
field mean 0.00036356875253922
field stddev 0.00032075613706033
field sum 55.408968593235
field sqrsum 0.035824773077915
field min 8.992e-006
field max 0.000966967473
statistic Basic.rack[7].node[6].app 	hops
field count 152403
field mean 4.5633222443128
field stddev 1.130172867006
field sum 695464
field sqrsum 3368288
field min 3
field max 6
statistic Basic.rack[7].node[7].app 	throughput
field count 153085
field mean 76543
field stddev 44191.977316779
field sum 11717585155
field sqrsum 1.1958615881638e+015
field min 1
field max 153085
statistic Basic.rack[7].node[7].app 	"End-to-End Delay"
field count 153085
field mean 0.00036252159227089
field stddev 0.00032041341268586
field sum 55.496617952789
field sqrsum 0.035835053664753
field min 8.992e-006
field max 0.000948119168
statistic Basic.rack[7].node[7].app 	hops
field count 153085
field mean 4.5611327040533
field stddev 1.1301334719291
field sum 698241
field sqrsum 3380289
field min 3
field max 6
statistic Basic.rack[7].node[8].app 	throughput
field count 153371
field mean 76686
field stddev 44274.538405273
field sum 11761408506
field sqrsum 1.202576576452e+015
field min 1
field max 153371
statistic Basic.rack[7].node[8].app 	"End-to-End Delay"
field count 153371
field mean 0.00036322473838178
field stddev 0.00032041484968758
field sum 55.708141350352
field sqrsum 0.035980409780549
field min 8.992e-006
field max 0.000941047736
statistic Basic.rack[7].node[8].app 	hops
field count 153371
field mean 4.5626878614601
field stddev 1.1293474605337
field sum 699784
field sqrsum 3388508
field min 3
field max 6
statistic Basic.rack[7].node[9].app 	throughput
field count 153536
field mean 76768.5
field stddev 44322.169802481
field sum 11786728416
field sqrsum 1.2064620182955e+015
field min 1
field max 153536
statistic Basic.rack[7].node[9].app 	"End-to-End Delay"
field count 153536
field mean 0.000361594085674
field stddev 0.00032033680688098
field sum 55.517709538043
field sqrsum 0.035829972288423
field min 8.992e-006
field max 0.000939560524
statistic Basic.rack[7].node[9].app 	hops
field count 153536
field mean 4.5588070550229
field stddev 1.128085319512
field sum 699941
field sqrsum 3386281
field min 3
field max 6
statistic Basic.rack[7].eps.queue[0] 	dropsum
field count 267216
field mean 133608.5
field stddev 77138.75910332
field sum 35702328936
field sqrsum 6.3601675867511e+015
field min 1
field max 267216
statistic Basic.rack[7].eps.queue[1] 	dropsum
field count 238900
field mean 119450.5
field stddev 68964.633992117
field sum 28536724450
field sqrsum 4.5449584929782e+015
field min 1
field max 238900
statistic Basic.rack[7].eps.queue[2] 	dropsum
field count 0
field mean nan
field stddev nan
field sum 0
field sqrsum 0
field min nan
field max nan
statistic Basic.rack[7].eps.queue[3] 	dropsum
field count 0
field mean nan
field stddev nan
field sum 0
field sqrsum 0
field min nan
field max nan
statistic Basic.rack[8].node[0].app 	throughput
field count 156013
field mean 78007
field stddev 45037.218110877
field sum 12170106091
field sqrsum 1.2658005644188e+015
field min 1
field max 156013
statistic Basic.rack[8].node[0].app 	"End-to-End Delay"
field count 156013
field mean 0.00038887868489045
field stddev 0.00029260415367478
field sum 60.670130265814
field sqrsum 0.036950629632837
field min 8.992e-006
field max 0.000835406568
statistic Basic.rack[8].node[0].app 	hops
field count 156013
field mean 4.2794510713851
field stddev 1.4837022208893
field sum 667650
field sqrsum 3200616
field min 3
field max 6
statistic Basic.rack[8].node[1].app 	throughput
field count 156647
field mean 78324
field stddev 45220.238146211
field sum 12269219628
field sqrsum 1.2812950544514e+015
field min 1
field max 156647
statistic Basic.rack[8].node[1].app 	"End-to-End Delay"
field count 156647
field mean 0.00038809415318897
field stddev 0.00029273669995244
field sum 60.793784814592
field sqrsum 0.037017456239595
field min 8.992e-006
field max 0.000835216744
statistic Basic.rack[8].node[1].app 	hops
field count 156647
field mean 4.2829099823169
field stddev 1.4842122445803
field sum 670905
field sqrsum 3218499
field min 3
field max 6
statistic Basic.rack[8].node[2].app 	throughput
field count 156438
field mean 78219.5
field stddev 45159.90504308
field sum 12236502141
field sqrsum 1.2761733601232e+015
field min 1
field max 156438
statistic Basic.rack[8].node[2].app 	"End-to-End Delay"
field count 156438
field mean 0.00038701572910897
field stddev 0.00029219351523747
field sum 60.543966630348
field sqrsum 0.036787597013701
field min 8.992e-006
field max 0.000835165182
statistic Basic.rack[8].node[2].app 	hops
field count 156438
field mean 4.2726958923024
field stddev 1.4826823311606
field sum 668412
field sqrsum 3199824
field min 3
field max 6
statistic Basic.rack[8].node[3].app 	throughput
field count 156991
field mean 78496
field stddev 45319.542392512
field sum 12323165536
field sqrsum 1.2897548281633e+015
field min 1
field max 156991
statistic Basic.rack[8].node[3].app 	"End-to-End Delay"
field count 156991
field mean 0.00038893180583078
field stddev 0.00029248014601337
field sum 61.05879312918
field sqrsum 0.037177359049706
field min 8.992e-006
field max 0.000835310164
statistic Basic.rack[8].node[3].app 	hops
field count 156991
field mean 4.2823537655025
field stddev 1.4841307715272
field sum 672291
field sqrsum 3224781
field min 3
field max 6
statistic Basic.rack[8].node[4].app 	throughput
field count 156360
field mean 78180.5
field stddev 45137.388382581
field sum 12224302980
field sqrsum 1.2742654174029e+015
field min 1
field max 156360
statistic Basic.rack[8].node[4].app 	"End-to-End Delay"
field count 156360
field mean 0.00038791403632424
field stddev 0.00029227035203802
field sum 60.654238719658
field sqrsum 0.036885122599229
field min 8.992e-006
field max 0.000835166555
statistic Basic.rack[8].node[4].app 	hops
field count 156360
field mean 4.2749616270146
field stddev 1.483027915031
field sum 668433
field sqrsum 3201417
field min 3
field max 6
statistic Basic.rack[8].node[5].app 	throughput
field count 157403
field mean 78702
field stddev 45438.476547965
field sum 12387930906
field sqrsum 1.2999357882417e+015
field min 1
field max 157403
statistic Basic.rack[8].node[5].app 	"End-to-End Delay"
field count 157403
field mean 0.00038822275454569
field stddev 0.00029228977644395
field sum 61.107426233756
field sqrsum 0.037170667733602
field min 8.992e-006
field max 0.00083522659
statistic Basic.rack[8].node[5].app 	hops
field count 157403
field mean 4.2799692509037
field stddev 1.4837791131034
field sum 673680
field sqrsum 3229866
field min 3
field max 6
statistic Basic.rack[8].node[6].app 	throughput
field count 156992
field mean 78496.5
field stddev 45319.831067646
field sum 12323322528
field sqrsum 1.2897794746514e+015
field min 1
field max 156992
statistic Basic.rack[8].node[6].app 	"End-to-End Delay"
field count 156992
field mean 0.00038793116864978
field stddev 0.00029272013878493
field sum 60.902090028666
field sqrsum 0.03707760529741
field min 8.992e-006
field max 0.000835326567
statistic Basic.rack[8].node[6].app 	hops
field count 156992
field mean 4.2752560640033
field stddev 1.4830725449307
field sum 671181
field sqrsum 3214773
field min 3
field max 6
statistic Basic.rack[8].node[7].app 	throughput
field count 156935
field mean 78468
field stddev 45303.376584974
field sum 12314375580
field sqrsum 1.2883751258901e+015
field min 1
field max 156935
statistic Basic.rack[8].node[7].app 	"End-to-End Delay"
field count 156935
field mean 0.00038914292786938
field stddev 0.00029190235052995
field sum 61.070145385181
field sqrsum 0.037136887732221
field min 8.992e-006
field max 0.000835146505
statistic Basic.rack[8].node[7].app 	hops
field count 156935
field mean 4.2812438270622
field stddev 1.483967576838
field sum 671877
field sqrsum 3222063
field min 3
field max 6
statistic Basic.rack[8].node[8].app 	throughput
field count 156030
field mean 78015.5
field stddev 45042.125588165
field sum 12172758465
field sqrsum 1.2662143931155e+015
field min 1
field max 156030
statistic Basic.rack[8].node[8].app 	"End-to-End Delay"
field count 156030
field mean 0.00038712879403
field stddev 0.00029267711066709
field sum 60.403705732501
field sqrsum 0.036749440904925
field min 8.992e-006
field max 0.000835174398
statistic Basic.rack[8].node[8].app 	hops
field count 156030
field mean 4.2702172659104
field stddev 1.482300231772
field sum 666282
field sqrsum 3187998
field min 3
field max 6
statistic Basic.rack[8].node[9].app 	throughput
field count 156807
field mean 78404
field stddev 45266.426167746
field sum 12294296028
field sqrsum 1.2852252162737e+015
field min 1
field max 156807
statistic Basic.rack[8].node[9].app 	"End-to-End Delay"
field count 156807
field mean 0.00038847880812397
field stddev 0.00029251519792939
field sum 60.916196465496
field sqrsum 0.037081778901092
field min 8.992e-006
field max 0.000835209703
statistic Basic.rack[8].node[9].app 	hops
field count 156807
field mean 4.2793051330617
field stddev 1.4836804959402
field sum 671025
field sqrsum 3216699
field min 3
field max 6
statistic Basic.rack[8].eps.queue[0] 	dropsum
field count 29313
field mean 14657
field stddev 8462.0785567141
field sum 429640641
field sqrsum 8396180619969
field min 1
field max 29313
statistic Basic.rack[8].eps.queue[1] 	dropsum
field count 180246
field mean 90123.5
field stddev 52032.682647544
field sum 16244400381
field sqrsum 1.9519975421826e+015
field min 1
field max 180246
statistic Basic.rack[8].eps.queue[2] 	dropsum
field count 0
field mean nan
field stddev nan
field sum 0
field sqrsum 0
field min nan
field max nan
statistic Basic.rack[8].eps.queue[3] 	dropsum
field count 0
field mean nan
field stddev nan
field sum 0
field sqrsum 0
field min nan
field max nan
statistic Basic.rack[9].node[0].app 	throughput
field count 117971
field mean 58986
field stddev 34055.438640546
field sum 6958637406
field sqrsum 5.4728059516129e+014
field min 1
field max 117971
statistic Basic.rack[9].node[0].app 	"End-to-End Delay"
field count 117971
field mean 0.00048743319865721
field stddev 0.00016836756457503
field sum 57.50298187879
field sqrsum 0.031373033102911
field min 1.462847e-005
field max 0.000834694943
statistic Basic.rack[9].node[0].app 	hops
field count 117971
field mean 4.0433665900942
field stddev 1.2649450282918
field sum 477000
field sqrsum 2117448
field min 3
field max 6
statistic Basic.rack[9].node[1].app 	throughput
field count 118067
field mean 59034
field stddev 34083.151453467
field sum 6969967278
field sqrsum 5.4861774106351e+014
field min 1
field max 118067
statistic Basic.rack[9].node[1].app 	"End-to-End Delay"
field count 118067
field mean 0.00048753173589632
field stddev 0.00016850385822749
field sum 57.561409462071
field sqrsum 0.031415326778029
field min 1.2870923e-005
field max 0.000834694582
statistic Basic.rack[9].node[1].app 	hops
field count 118067
field mean 4.042831612559
field stddev 1.2652819696354
field sum 477325
field sqrsum 2118761
field min 3
field max 6
statistic Basic.rack[9].node[2].app 	throughput
field count 117727
field mean 58864
field stddev 33985.001907704
field sum 6929882128
field sqrsum 5.4389179881608e+014
field min 1
field max 117727
statistic Basic.rack[9].node[2].app 	"End-to-End Delay"
field count 117727
field mean 0.00048770368994292
field stddev 0.00016851684968928
field sum 57.415892305911
field sqrsum 0.031345117084759
field min 3.3730002e-005
field max 0.000834694771
statistic Basic.rack[9].node[2].app 	hops
field count 117727
field mean 4.0446711459563
field stddev 1.2655437402658
field sum 476167
field sqrsum 2114489
field min 3
field max 6
statistic Basic.rack[9].node[3].app 	throughput
field count 117334
field mean 58667.5
field stddev 33871.552579808
field sum 6883692445
field sqrsum 5.3846307412524e+014
field min 1
field max 117334
statistic Basic.rack[9].node[3].app 	"End-to-End Delay"
field count 117334
field mean 0.00048649431598072
field stddev 0.00016784467859354
field sum 57.082324071282
field sqrsum 0.031075712252544
field min 8.992e-006
field max 0.000834694855
statistic Basic.rack[9].node[3].app 	hops
field count 117334
field mean 4.0394344350316
field stddev 1.2626644862796
field sum 473963
field sqrsum 2101609
field min 3
field max 6
statistic Basic.rack[9].node[4].app 	throughput
field count 117621
field mean 58811
field stddev 33954.402343437
field sum 6917408631
field sqrsum 5.4242398619411e+014
field min 1
field max 117621
statistic Basic.rack[9].node[4].app 	"End-to-End Delay"
field count 117621
field mean 0.00048772117284452
field stddev 0.00016881973463852
field sum 57.366252071146
field sqrsum 0.031330917833572
field min 3.9081242e-005
field max 0.000834694799
statistic Basic.rack[9].node[4].app 	hops
field count 117621
field mean 4.0430705401246
field stddev 1.2661062495817
field sum 475550
field sqrsum 2111230
field min 3
field max 6
statistic Basic.rack[9].node[5].app 	throughput
field count 118039
field mean 59020
field stddev 34075.068549699
field sum 6966661780
field sqrsum 5.4822751545354e+014
field min 1
field max 118039
statistic Basic.rack[9].node[5].app 	"End-to-End Delay"
field count 118039
field mean 0.00048724892844827
field stddev 0.0001681574088793
field sum 57.514376265105
field sqrsum 0.031361568599279
field min 2.9383049e-005
field max 0.000834694262
statistic Basic.rack[9].node[5].app 	hops
field count 118039
field mean 4.0434432687502
field stddev 1.264242545276
field sum 477284
field sqrsum 2118532
field min 3
field max 6
statistic Basic.rack[9].node[6].app 	throughput
field count 118116
field mean 59058.5
field stddev 34097.296535063
field sum 6975753786
field sqrsum 5.4930108137605e+014
field min 1
field max 118116
statistic Basic.rack[9].node[6].app 	"End-to-End Delay"
field count 118116
field mean 0.00048726520403145
field stddev 0.0001683025694985
field sum 57.553816839379
field sqrsum 0.031389668845018
field min 2.7108074e-005
field max 0.000834693576
statistic Basic.rack[9].node[6].app 	hops
field count 118116
field mean 4.043313352975
field stddev 1.2645241666497
field sum 477580
field sqrsum 2119874
field min 3
field max 6
statistic Basic.rack[9].node[7].app 	throughput
field count 118415
field mean 59208
field stddev 34183.610400307
field sum 7011115320
field sqrsum 5.5348315078364e+014
field min 1
field max 118415
statistic Basic.rack[9].node[7].app 	"End-to-End Delay"
field count 118415
field mean 0.00048716562806202
field stddev 0.00016813565144207
field sum 57.687717846964
field sqrsum 0.031450989389387
field min 2.0155135e-005
field max 0.000834694856
statistic Basic.rack[9].node[7].app 	hops
field count 118415
field mean 4.0373010176076
field stddev 1.2642761251688
field sum 478077
field sqrsum 2119413
field min 3
field max 6
statistic Basic.rack[9].node[8].app 	throughput
field count 117996
field mean 58998.5
field stddev 34062.655518911
field sum 6961587006
field sqrsum 5.4762860076899e+014
field min 1
field max 117996
statistic Basic.rack[9].node[8].app 	"End-to-End Delay"
field count 117996
field mean 0.00048777996298566
field stddev 0.00016870702653748
field sum 57.556084512455
field sqrsum 0.031433085637549
field min 1.4823869e-005
field max 0.000834694623
statistic Basic.rack[9].node[8].app 	hops
field count 117996
field mean 4.0447303298417
field stddev 1.2659019891986
field sum 477262
field sqrsum 2119484
field min 3
field max 6
statistic Basic.rack[9].node[9].app 	throughput
field count 118019
field mean 59010
field stddev 34069.295047007
field sum 6964301190
field sqrsum 5.4794889619547e+014
field min 1
field max 118019
statistic Basic.rack[9].node[9].app 	"End-to-End Delay"
field count 118019
field mean 0.00048761173023928
field stddev 0.00016848153759736
field sum 57.54744879111
field sqrsum 0.03141087338872
field min 9.4416e-006
field max 0.000834695029
statistic Basic.rack[9].node[9].app 	hops
field count 118019
field mean 4.0439081842754
field stddev 1.2652113580817
field sum 477258
field sqrsum 2118906
field min 3
field max 6
statistic Basic.rack[9].eps.queue[0] 	dropsum
field count 0
field mean nan
field stddev nan
field sum 0
field sqrsum 0
field min nan
field max nan
statistic Basic.rack[9].eps.queue[1] 	dropsum
field count 1062342
field mean 531171.5
field stddev 306671.86417292
field sum 564285793653
field sqrsum 3.9964318716232e+017
field min 1
field max 1062342
statistic Basic.rack[9].eps.queue[2] 	dropsum
field count 0
field mean nan
field stddev nan
field sum 0
field sqrsum 0
field min nan
field max nan
statistic Basic.rack[9].eps.queue[3] 	dropsum
field count 0
field mean nan
field stddev nan
field sum 0
field sqrsum 0
field min nan
field max nan
statistic Basic.rack[10].node[0].app 	throughput
field count 90008
field mean 45004.5
field stddev 25983.215851776
field sum 4050765036
field sqrsum 2.430688564952e+014
field min 1
field max 90008
statistic Basic.rack[10].node[0].app 	"End-to-End Delay"
field count 90008
field mean 0.00066936491327346
field stddev 0.0003672812244372
field sum 60.248197113918
field sqrsum 0.052469568308693
field min 1.5845783e-005
field max 0.00124814786
statistic Basic.rack[10].node[0].app 	hops
field count 90008
field mean 4.8256710514621
field stddev 1.0380005478083
field sum 434349
field sqrsum 2193003
field min 3
field max 6
statistic Basic.rack[10].node[1].app 	throughput
field count 89223
field mean 44612
field stddev 25756.605871116
field sum 3980416476
field sqrsum 2.3676445963092e+014
field min 1
field max 89223
statistic Basic.rack[10].node[1].app 	"End-to-End Delay"
field count 89223
field mean 0.0006702610370211
field stddev 0.00036764275269123
field sum 59.802700506134
field sqrsum 0.052142772073853
field min 5.6855336e-005
field max 0.001248154803
statistic Basic.rack[10].node[1].app 	hops
field count 89223
field mean 4.8247985384934
field stddev 1.0345039884374
field sum 430483
field sqrsum 2172479
field min 3
field max 6
statistic Basic.rack[10].node[2].app 	throughput
field count 89734
field mean 44867.5
field stddev 25904.118864896
field sum 4026140245
field sqrsum 2.4085578787664e+014
field min 1
field max 89734
statistic Basic.rack[10].node[2].app 	"End-to-End Delay"
field count 89734
field mean 0.00066977292596185
field stddev 0.00036741970679388
field sum 60.10140373826
field sqrsum 0.052368000457503
field min 5.0103474e-005
field max 0.001248144584
statistic Basic.rack[10].node[2].app 	hops
field count 89734
field mean 4.8285265339782
field stddev 1.0364219501665
field sum 433283
field sqrsum 2188507
field min 3
field max 6
statistic Basic.rack[10].node[3].app 	throughput
field count 89532
field mean 44766.5
field stddev 25845.806487707
field sum 4008034278
field sqrsum 2.3923288599669e+014
field min 1
field max 89532
statistic Basic.rack[10].node[3].app 	"End-to-End Delay"
field count 89532
field mean 0.00066934339524927
field stddev 0.00036719005822495
field sum 59.927652863457
field sqrsum 0.052183512549553
field min 1.80336e-005
field max 0.00124815552
statistic Basic.rack[10].node[3].app 	hops
field count 89532
field mean 4.8316691238887
field stddev 1.0368665597061
field sum 432589
field sqrsum 2186381
field min 3
field max 6
statistic Basic.rack[10].node[4].app 	throughput
field count 89333
field mean 44667
field stddev 25788.360135922
field sum 3990237111
field sqrsum 2.3764123130368e+014
field min 1
field max 89333
statistic Basic.rack[10].node[4].app 	"End-to-End Delay"
field count 89333
field mean 0.00066976960912251
field stddev 0.000367443449307
field sum 59.832528491741
field sqrsum 0.052135141368324
field min 6.4909442e-005
field max 0.001248144122
statistic Basic.rack[10].node[4].app 	hops
field count 89333
field mean 4.8272754749085
field stddev 1.0352930024731
field sum 431235
field sqrsum 2177439
field min 3
field max 6
statistic Basic.rack[10].node[5].app 	throughput
field count 88947
field mean 44474
field stddev 25676.931533966
field sum 3955828878
field sqrsum 2.3457405941727e+014
field min 1
field max 88947
statistic Basic.rack[10].node[5].app 	"End-to-End Delay"
field count 88947
field mean 0.00067149862958984
field stddev 0.0003681137271744
field sum 59.727788606128
field sqrsum 0.052159997516722
field min 9.0649526e-005
field max 0.001248153335
statistic Basic.rack[10].node[5].app 	hops
field count 88947
field mean 4.8233217534037
field stddev 1.0382824787316
field sum 429020
field sqrsum 2165188
field min 3
field max 6
statistic Basic.rack[10].node[6].app 	throughput
field count 89437
field mean 44719
field stddev 25818.38234992
field sum 3999533203
field sqrsum 2.3847216722888e+014
field min 1
field max 89437
statistic Basic.rack[10].node[6].app 	"End-to-End Delay"
field count 89437
field mean 0.00067049744287186
field stddev 0.00036772072412601
field sum 59.967279798131
field sqrsum 0.05230131229483
field min 9.7036193e-005
field max 0.001248153239
statistic Basic.rack[10].node[6].app 	hops
field count 89437
field mean 4.8214832787325
field stddev 1.0369520187127
field sum 431219
field sqrsum 2175283
field min 3
field max 6
statistic Basic.rack[10].node[7].app 	throughput
field count 89777
field mean 44889
field stddev 25916.531895684
field sum 4029999753
field sqrsum 2.412022018833e+014
field min 1
field max 89777
statistic Basic.rack[10].node[7].app 	"End-to-End Delay"
field count 89777
field mean 0.00067039207014423
field stddev 0.00036766419102129
field sum 60.185788881339
field sqrsum 0.052483722125317
field min 2.6698014e-005
field max 0.001248151688
statistic Basic.rack[10].node[7].app 	hops
field count 89777
field mean 4.8212125600098
field stddev 1.0376494122805
field sum 432834
field sqrsum 2183448
field min 3
field max 6
statistic Basic.rack[10].node[8].app 	throughput
field count 89593
field mean 44797
field stddev 25863.415670918
field sum 4013497621
field sqrsum 2.3972219940471e+014
field min 1
field max 89593
statistic Basic.rack[10].node[8].app 	"End-to-End Delay"
field count 89593
field mean 0.00067156116289266
field stddev 0.00036811363808731
field sum 60.167179267042
field sqrsum 0.052546342304252
field min 2.9835534e-005
field max 0.001248147993
statistic Basic.rack[10].node[8].app 	hops
field count 89593
field mean 4.8221401225542
field stddev 1.0360757784627
field sum 432030
field sqrsum 2179482
field min 3
field max 6
statistic Basic.rack[10].node[9].app 	throughput
field count 89597
field mean 44799
field stddev 25864.570371456
field sum 4013856003
field sqrsum 2.397543088192e+014
field min 1
field max 89597
statistic Basic.rack[10].node[9].app 	"End-to-End Delay"
field count 89597
field mean 0.00067082488074807
field stddev 0.0003677800507011
field sum 60.103896840385
field sqrsum 0.052438138427939
field min 1.2723592e-005
field max 0.00124815407
statistic Basic.rack[10].node[9].app 	hops
field count 89597
field mean 4.8279853120082
field stddev 1.0369146928863
field sum 432573
field sqrsum 2184789
field min 3
field max 6
statistic Basic.rack[10].eps.queue[0] 	dropsum
field count 1130597
field mean 565299
field stddev 326375.38548496
field sum 639125353503
field sqrsum 4.8172901790469e+017
field min 1
field max 1130597
statistic Basic.rack[10].eps.queue[1] 	dropsum
field count 0
field mean nan
field stddev nan
field sum 0
field sqrsum 0
field min nan
field max nan
statistic Basic.rack[10].eps.queue[2] 	dropsum
field count 0
field mean nan
field stddev nan
field sum 0
field sqrsum 0
field min nan
field max nan
statistic Basic.rack[10].eps.queue[3] 	dropsum
field count 0
field mean nan
field stddev nan
field sum 0
field sqrsum 0
field min nan
field max nan
statistic Basic.rack[11].node[0].app 	throughput
field count 71899
field mean 35950
field stddev 20755.597839298
field sum 2584769050
field sqrsum 1.2389573487365e+014
field min 1
field max 71899
statistic Basic.rack[11].node[0].app 	"End-to-End Delay"
field count 71899
field mean 0.00074362931260891
field stddev 0.00024805046480978
field sum 53.466203947268
field sqrsum 0.044182850910388
field min 4.2261857e-005
field max 0.001250586554
statistic Basic.rack[11].node[0].app 	hops
field count 71899
field mean 4.8709717798579
field stddev 1.3179169671474
field sum 350218
field sqrsum 1830782
field min 3
field max 6
statistic Basic.rack[11].node[1].app 	throughput
field count 72093
field mean 36047
field stddev 20811.600815411
field sum 2598736371
field sqrsum 1.2490133370846e+014
field min 1
field max 72093
statistic Basic.rack[11].node[1].app 	"End-to-End Delay"
field count 72093
field mean 0.00074351433198306
field stddev 0.00024769095757809
field sum 53.602178735655
field sqrsum 0.044276890743589
field min 3.0000231e-005
field max 0.001250595629
[...]
field min 1
field max 139849
statistic Basic.rack[13].node[2].app 	"End-to-End Delay"
field count 139849
field mean 0.00034205938962899
field stddev 0.00026660020145687
field sum 47.836663580225
field sqrsum 0.02630276988305
field min 8.992e-006
field max 0.000836917652
statistic Basic.rack[13].node[2].app 	hops
field count 139849
field mean 4.2442420038756
field stddev 1.3580941943174
field sum 593553
field sqrsum 2777121
field min 3
field max 6
statistic Basic.rack[13].node[3].app 	throughput
field count 139396
field mean 69698.5
field stddev 40240.303399287
field sum 9715692106
field sqrsum 9.0288898310269e+014
field min 1
field max 139396
statistic Basic.rack[13].node[3].app 	"End-to-End Delay"
field count 139396
field mean 0.00034220538978596
field stddev 0.00026688585991914
field sum 47.702062514603
field sqrsum 0.026252738630227
field min 8.992e-006
field max 0.000837041999
statistic Basic.rack[13].node[3].app 	hops
field count 139396
field mean 4.2522597492037
field stddev 1.358977726502
field sum 592748
field sqrsum 2777956
field min 3
field max 6
statistic Basic.rack[13].node[4].app 	throughput
field count 140028
field mean 70014.5
field stddev 40422.746084352
field sum 9803990406
field sqrsum 9.1522538037771e+014
field min 1
field max 140028
statistic Basic.rack[13].node[4].app 	"End-to-End Delay"
field count 140028
field mean 0.00034315680995625
field stddev 0.00026730037454056
field sum 48.051561784554
field sqrsum 0.026494078423772
field min 8.992e-006
field max 0.000837054305
statistic Basic.rack[13].node[4].app 	hops
field count 140028
field mean 4.2556274459394
field stddev 1.360406573968
field sum 595907
field sqrsum 2795107
field min 3
field max 6
statistic Basic.rack[13].node[5].app 	throughput
field count 139885
field mean 69943
field stddev 40381.465540105
field sum 9783976555
field sqrsum 9.1242430158964e+014
field min 1
field max 139885
statistic Basic.rack[13].node[5].app 	"End-to-End Delay"
field count 139885
field mean 0.00034179496089863
field stddev 0.00026715143279361
field sum 47.811988105305
field sqrsum 0.02632540202404
field min 8.992e-006
field max 0.000836902001
statistic Basic.rack[13].node[5].app 	hops
field count 139885
field mean 4.2451871179898
field stddev 1.3593299674856
field sum 593838
field sqrsum 2779428
field min 3
field max 6
statistic Basic.rack[13].node[6].app 	throughput
field count 140669
field mean 70335
field stddev 40607.786845629
field sum 9893954115
field sqrsum 9.2785171892e+014
field min 1
field max 140669
statistic Basic.rack[13].node[6].app 	"End-to-End Delay"
field count 140669
field mean 0.00034142020187292
field stddev 0.00026720126343838
field sum 48.027238377262
field sqrsum 0.026440674419935
field min 8.992e-006
field max 0.000836627839
statistic Basic.rack[13].node[6].app 	hops
field count 140669
field mean 4.2494437296064
field stddev 1.3589142413925
field sum 597765
field sqrsum 2799933
field min 3
field max 6
statistic Basic.rack[13].node[7].app 	throughput
field count 140046
field mean 70023.5
field stddev 40427.942236775
field sum 9806511081
field sqrsum 9.1557836940351e+014
field min 1
field max 140046
statistic Basic.rack[13].node[7].app 	"End-to-End Delay"
field count 140046
field mean 0.000342178458187
field stddev 0.00026688683864783
field sum 47.920724355256
field sqrsum 0.026372646711475
field min 8.992e-006
field max 0.000836973553
statistic Basic.rack[13].node[7].app 	hops
field count 140046
field mean 4.2507890264627
field stddev 1.3578523443766
field sum 595306
field sqrsum 2788730
field min 3
field max 6
statistic Basic.rack[13].node[8].app 	throughput
field count 140574
field mean 70287.5
field stddev 40580.362707842
field sum 9880595025
field sqrsum 9.2597313689458e+014
field min 1
field max 140574
statistic Basic.rack[13].node[8].app 	"End-to-End Delay"
field count 140574
field mean 0.00034100902870873
field stddev 0.00026676790373018
field sum 47.937003201701
field sqrsum 0.026350844536089
field min 8.992e-006
field max 0.000836298831
statistic Basic.rack[13].node[8].app 	hops
field count 140574
field mean 4.2466032125429
field stddev 1.3573492014015
field sum 596962
field sqrsum 2794052
field min 3
field max 6
statistic Basic.rack[13].node[9].app 	throughput
field count 140099
field mean 70050
field stddev 40443.242018908
field sum 9813934950
field sqrsum 9.1661825301835e+014
field min 1
field max 140099
statistic Basic.rack[13].node[9].app 	"End-to-End Delay"
field count 140099
field mean 0.00034055700658808
field stddev 0.00026715522130161
field sum 47.711696065983
field sqrsum 0.026247614556493
field min 8.992e-006
field max 0.000836234918
statistic Basic.rack[13].node[9].app 	hops
field count 140099
field mean 4.2435563423008
field stddev 1.3570948047463
field sum 594518
field sqrsum 2780890
field min 3
field max 6
statistic Basic.rack[13].eps.queue[0] 	dropsum
field count 21302
field mean 10651.5
field stddev 6149.5020530121
field sum 226898253
field sqrsum 3222333356355
field min 1
field max 21302
statistic Basic.rack[13].eps.queue[1] 	dropsum
field count 1028117
field mean 514059
field stddev 296791.95769125
field sum 528512796903
field sqrsum 3.6224883697964e+017
field min 1
field max 1028117
statistic Basic.rack[13].eps.queue[2] 	dropsum
field count 0
field mean nan
field stddev nan
field sum 0
field sqrsum 0
field min nan
field max nan
statistic Basic.rack[13].eps.queue[3] 	dropsum
field count 0
field mean nan
field stddev nan
field sum 0
field sqrsum 0
field min nan
field max nan
statistic Basic.rack[14].node[0].app 	throughput
field count 94555
field mean 47278
field stddev 27295.821688798
field sum 4470371290
field sqrsum 2.8179879500773e+014
field min 1
field max 94555
statistic Basic.rack[14].node[0].app 	"End-to-End Delay"
field count 94555
field mean 0.00060534724128401
field stddev 0.0002060111148953
field sum 57.23860839961
field sqrsum 0.038662160239939
field min 1.80336e-005
field max 0.000957973083
statistic Basic.rack[14].node[0].app 	hops
field count 94555
field mean 4.6788006980065
field stddev 1.1084452567965
field sum 442404
field sqrsum 2186094
field min 3
field max 6
statistic Basic.rack[14].node[1].app 	throughput
field count 94787
field mean 47394
field stddev 27362.794320025
field sum 4492335078
field sqrsum 2.8387814080395e+014
field min 1
field max 94787
statistic Basic.rack[14].node[1].app 	"End-to-End Delay"
field count 94787
field mean 0.00060451888377281
field stddev 0.0002058832145522
field sum 57.300531436174
field sqrsum 0.038657032606468
field min 5.8413362e-005
field max 0.000935042819
statistic Basic.rack[14].node[1].app 	hops
field count 94787
field mean 4.6768227710551
field stddev 1.1102911884617
field sum 443302
field sqrsum 2190092
field min 3
field max 6
statistic Basic.rack[14].node[2].app 	throughput
field count 94591
field mean 47296
field stddev 27306.213993644
field sum 4473775936
field sqrsum 2.821207843001e+014
field min 1
field max 94591
statistic Basic.rack[14].node[2].app 	"End-to-End Delay"
field count 94591
field mean 0.00060453796585409
field stddev 0.0002058988993374
field sum 57.183850728104
field sqrsum 0.038579891003699
field min 0.000126129815
field max 0.000937993175
statistic Basic.rack[14].node[2].app 	hops
field count 94591
field mean 4.6792295250077
field stddev 1.1066464058372
field sum 442613
field sqrsum 2186929
field min 3
field max 6
statistic Basic.rack[14].node[3].app 	throughput
field count 94228
field mean 47114.5
field stddev 27201.424919784
field sum 4439505106
field sqrsum 2.7888527125381e+014
field min 1
field max 94228
statistic Basic.rack[14].node[3].app 	"End-to-End Delay"
field count 94228
field mean 0.00060491434638032
field stddev 0.00020598849974001
field sum 56.999869030725
field sqrsum 0.038478209045328
field min 6.4105986e-005
field max 0.0009473873
statistic Basic.rack[14].node[3].app 	hops
field count 94228
field mean 4.6793522095343
field stddev 1.1058660817234
field sum 440926
field sqrsum 2178482
field min 3
field max 6
statistic Basic.rack[14].node[4].app 	throughput
field count 94803
field mean 47402
field stddev 27367.413122179
field sum 4493851806
field sqrsum 2.8402191979341e+014
field min 1
field max 94803
statistic Basic.rack[14].node[4].app 	"End-to-End Delay"
field count 94803
field mean 0.00060489853174452
field stddev 0.00020599256616464
field sum 57.346195504976
field sqrsum 0.038711356785439
field min 2.0708926e-005
field max 0.00094474652
statistic Basic.rack[14].node[4].app 	hops
field count 94803
field mean 4.6758752360157
field stddev 1.1090909061248
field sum 443287
field sqrsum 2189369
field min 3
field max 6
statistic Basic.rack[14].node[5].app 	throughput
field count 94310
field mean 47155.5
field stddev 27225.096280821
field sum 4447235205
field sqrsum 2.7961398386744e+014
field min 1
field max 94310
statistic Basic.rack[14].node[5].app 	"End-to-End Delay"
field count 94310
field mean 0.00060511996233095
field stddev 0.00020598171506844
field sum 57.068863647432
field sqrsum 0.038534894909488
field min 4.799247e-005
field max 0.000947138875
statistic Basic.rack[14].node[5].app 	hops
field count 94310
field mean 4.6854522320008
field stddev 1.105356399233
field sum 441885
field sqrsum 2185659
field min 3
field max 6
statistic Basic.rack[14].node[6].app 	throughput
field count 94844
field mean 47422.5
field stddev 27379.248802697
field sum 4497739590
field sqrsum 2.8439057502917e+014
field min 1
field max 94844
statistic Basic.rack[14].node[6].app 	"End-to-End Delay"
field count 94844
field mean 0.00060460260193794
field stddev 0.00020588122366482
field sum 57.342929178202
field sqrsum 0.038689801847082
field min 3.419311e-005
field max 0.000952911311
statistic Basic.rack[14].node[6].app 	hops
field count 94844
field mean 4.6780819029143
field stddev 1.1089505268702
field sum 443688
field sqrsum 2192244
field min 3
field max 6
statistic Basic.rack[14].node[7].app 	throughput
field count 94641
field mean 47321
field stddev 27320.647750374
field sum 4478506761
field sqrsum 2.8256839841412e+014
field min 1
field max 94641
statistic Basic.rack[14].node[7].app 	"End-to-End Delay"
field count 94641
field mean 0.00060547155298586
field stddev 0.00020596069295397
field sum 57.302433246135
field sqrsum 0.038709603785869
field min 0.000105759961
field max 0.000934920456
statistic Basic.rack[14].node[7].app 	hops
field count 94641
field mean 4.6863093162583
field stddev 1.1069840483187
field sum 443517
field sqrsum 2194431
field min 3
field max 6
statistic Basic.rack[14].node[8].app 	throughput
field count 94944
field mean 47472.5
field stddev 27408.116316157
field sum 4507229040
field sqrsum 2.8529107172552e+014
field min 1
field max 94944
statistic Basic.rack[14].node[8].app 	"End-to-End Delay"
field count 94944
field mean 0.0006042387496389
field stddev 0.00020576682129121
field sum 57.368843845716
field sqrsum 0.038684363645142
field min 4.7233399e-005
field max 0.000943688719
statistic Basic.rack[14].node[8].app 	hops
field count 94944
field mean 4.6803484159083
field stddev 1.1100693793108
field sum 444371
field sqrsum 2196805
field min 3
field max 6
statistic Basic.rack[14].node[9].app 	throughput
field count 95036
field mean 47518.5
field stddev 27434.67442854
field sum 4515968166
field sqrsum 2.8612120573871e+014
field min 1
field max 95036
statistic Basic.rack[14].node[9].app 	"End-to-End Delay"
field count 95036
field mean 0.00060494160015283
field stddev 0.00020582305175916
field sum 57.491229912125
field sqrsum 0.038804816547666
field min 0.000101405459
field max 0.000942913395
statistic Basic.rack[14].node[9].app 	hops
field count 95036
field mean 4.6803947977608
field stddev 1.1095244359663
field sum 444806
field sqrsum 2198860
field min 3
field max 6
statistic Basic.rack[14].eps.queue[0] 	dropsum
field count 1279843
field mean 639922
field stddev 369458.99462311
field sum 818999692246
field sqrsum 6.9879428841569e+017
field min 1
field max 1279843
statistic Basic.rack[14].eps.queue[1] 	dropsum
field count 0
field mean nan
field stddev nan
field sum 0
field sqrsum 0
field min nan
field max nan
statistic Basic.rack[14].eps.queue[2] 	dropsum
field count 0
field mean nan
field stddev nan
field sum 0
field sqrsum 0
field min nan
field max nan
statistic Basic.rack[14].eps.queue[3] 	dropsum
field count 0
field mean nan
field stddev nan
field sum 0
field sqrsum 0
field min nan
field max nan
statistic Basic.rack[15].node[0].app 	throughput
field count 102978
field mean 51489.5
field stddev 29727.332347522
field sum 5302285731
field sqrsum 3.6401428743319e+014
field min 1
field max 102978
statistic Basic.rack[15].node[0].app 	"End-to-End Delay"
field count 102978
field mean 0.00066319370792693
field stddev 0.00021051969113147
field sum 68.294361654899
field sqrsum 0.049856181266459
field min 0.000262783096
field max 0.001077859875
statistic Basic.rack[15].node[0].app 	hops
field count 102978
field mean 5.1858455204024
field stddev 1.0791405828664
field sum 534028
field sqrsum 2889308
field min 3
field max 6
statistic Basic.rack[15].node[1].app 	throughput
field count 102899
field mean 51450
field stddev 29704.527011888
field sum 5294153550
field sqrsum 3.6317716881215e+014
field min 1
field max 102899
statistic Basic.rack[15].node[1].app 	"End-to-End Delay"
field count 102899
field mean 0.00066292158199198
field stddev 0.00021057034041281
field sum 68.213967865393
field sqrsum 0.049782995255655
field min 5.2700324e-005
field max 0.001047659246
statistic Basic.rack[15].node[1].app 	hops
field count 102899
field mean 5.1817801922273
field stddev 1.0826269461969
field sum 533200
field sqrsum 2883530
field min 3
field max 6
statistic Basic.rack[15].node[2].app 	throughput
field count 102923
field mean 51462
field stddev 29711.455215119
field sum 5296623426
field sqrsum 3.6343134745727e+014
field min 1
field max 102923
statistic Basic.rack[15].node[2].app 	"End-to-End Delay"
field count 102923
field mean 0.00066413667846335
field stddev 0.00021051308273022
field sum 68.354939357484
field sqrsum 0.049958088826379
field min 2.4746374e-005
field max 0.001054514862
statistic Basic.rack[15].node[2].app 	hops
field count 102923
field mean 5.1858671045345
field stddev 1.0773163795771
field sum 533745
field sqrsum 2887383
field min 3
field max 6
statistic Basic.rack[15].node[3].app 	throughput
field count 103356
field mean 51678.5
field stddev 29836.4515484
field sum 5341283046
field sqrsum 3.6803754742927e+014
field min 1
field max 103356
statistic Basic.rack[15].node[3].app 	"End-to-End Delay"
field count 103356
field mean 0.00066274505956012
field stddev 0.00021059577988574
field sum 68.498678375896
field sqrsum 0.049981015134897
field min 6.203383e-005
field max 0.001048010913
statistic Basic.rack[15].node[3].app 	hops
field count 103356
field mean 5.177483648748
field stddev 1.0855355815845
field sum 535124
field sqrsum 2892388
field min 3
field max 6
statistic Basic.rack[15].node[4].app 	throughput
field count 103414
field mean 51707.5
field stddev 29853.194706206
field sum 5347279405
field sqrsum 3.6865748401892e+014
field min 1
field max 103414
statistic Basic.rack[15].node[4].app 	"End-to-End Delay"
field count 103414
field mean 0.00066276165658919
field stddev 0.00021054482764726
field sum 68.538833954515
field sqrsum 0.050009118879032
field min 2.4857437e-005
field max 0.001072640149
statistic Basic.rack[15].node[4].app 	hops
field count 103414
field mean 5.1799079428317
field stddev 1.0850777303524
field sum 535675
field sqrsum 2896505
field min 3
field max 6
statistic Basic.rack[15].node[5].app 	throughput
field count 102376
field mean 51188.5
field stddev 29553.549916493
field sum 5240473876
field sqrsum 3.5766758251088e+014
field min 1
field max 102376
statistic Basic.rack[15].node[5].app 	"End-to-End Delay"
field count 102376
field mean 0.00066287060176244
field stddev 0.00021060787469928
field sum 67.862040726032
field sqrsum 0.04952466419403
field min 2.9866743e-005
field max 0.001053961697
statistic Basic.rack[15].node[5].app 	hops
field count 102376
field mean 5.1797198562163
field stddev 1.0831344843842
field sum 530279
field sqrsum 2866801
field min 3
field max 6
statistic Basic.rack[15].node[6].app 	throughput
field count 102683
field mean 51342
field stddev 29642.173182815
field sum 5271950586
field sqrsum 3.6089489199835e+014
field min 1
field max 102683
statistic Basic.rack[15].node[6].app 	"End-to-End Delay"
field count 102683
field mean 0.00066392731097492
field stddev 0.00021039064719124
field sum 68.174048072838
field sqrsum 0.049807751507739
field min 0.000112278893
field max 0.001024530837
statistic Basic.rack[15].node[6].app 	hops
field count 102683
field mean 5.1832435748858
field stddev 1.0797556189415
field sum 532231
field sqrsum 2878397
field min 3
field max 6
statistic Basic.rack[15].node[7].app 	throughput
field count 103272
field mean 51636.5
field stddev 29812.202837093
field sum 5332604628
field sqrsum 3.6714094096342e+014
field min 1
field max 103272
statistic Basic.rack[15].node[7].app 	"End-to-End Delay"
field count 103272
field mean 0.00066238006398747
field stddev 0.00021072837187741
field sum 68.405313968114
field sqrsum 0.049896214401895
field min 1.80336e-005
field max 0.001078407318
statistic Basic.rack[15].node[7].app 	hops
field count 103272
field mean 5.1775214966303
field stddev 1.0833624066204
field sum 534693
field sqrsum 2889591
field min 3
field max 6
statistic Basic.rack[15].node[8].app 	throughput
field count 103262
field mean 51631.5
field stddev 29809.316085747
field sum 5331571953
field sqrsum 3.6703429919778e+014
field min 1
field max 103262
statistic Basic.rack[15].node[8].app 	"End-to-End Delay"
field count 103262
field mean 0.00066311087500643
field stddev 0.00021067620175306
field sum 68.474155174914
field sqrsum 0.049989140882407
field min 7.9196814e-005
field max 0.001067521434
statistic Basic.rack[15].node[8].app 	hops
field count 103262
field mean 5.178816989793
field stddev 1.080356435726
field sum 534775
field sqrsum 2890025
field min 3
field max 6
statistic Basic.rack[15].node[9].app 	throughput
field count 102533
field mean 51267
field stddev 29598.871912625
field sum 5256559311
field sqrsum 3.5931561607628e+014
field min 1
field max 102533
statistic Basic.rack[15].node[9].app 	"End-to-End Delay"
field count 102533
field mean 0.00066289251450232
field stddev 0.00021060743528149
field sum 67.968358189467
field sqrsum 0.049603573151622
field min 0.000202955267
field max 0.001053828132
statistic Basic.rack[15].node[9].app 	hops
field count 102533
field mean 5.1817756234578
field stddev 1.0810142978175
field sum 531303
field sqrsum 2872911
field min 3
field max 6
statistic Basic.rack[15].eps.queue[0] 	dropsum
field count 0
field mean nan
field stddev nan
field sum 0
field sqrsum 0
field min nan
field max nan
statistic Basic.rack[15].eps.queue[1] 	dropsum
field count 1055981
field mean 527991
field stddev 304835.60164174
field sum 557548464171
field sqrsum 3.9250724234509e+017
field min 1
field max 1055981
statistic Basic.rack[15].eps.queue[2] 	dropsum
field count 0
field mean nan
field stddev nan
field sum 0
field sqrsum 0
field min nan
field max nan
statistic Basic.rack[15].eps.queue[3] 	dropsum
field count 0
field mean nan
field stddev nan
field sum 0
field sqrsum 0
field min nan
field max nan
