version 2
run Basic-52-20180510-18:10:20-23980
attr configname Basic
attr datetime 20180510-18:10:20
attr experiment Basic
attr inifile omnetpp.ini
attr iterationvars "$0=exponential(0.08 ms), $1=5, $2=2"
attr iterationvarsf exponential(0.08_ms),5,2-
attr measurement "$0=exponential(0.08 ms), $1=5, $2=2"
attr network Networks.Basic
attr processid 23980
attr repetition 0
attr replication #0
attr resultdir results
attr runnumber 52
attr seedset 52
param **.frameCapacity 50
param **.packetLength "1024 bytes"
param **.pattern 5
param **.sendIaTime "exponential(0.08 ms)"
param **.tp 2

statistic Basic.rack[0].node[0].app 	throughput
field count 124835
field mean 62418
field stddev 36036.904764422
field sum 7791951030
field sqrsum 6.4847473520371e+014
field min 1
field max 124835
statistic Basic.rack[0].node[0].app 	"End-to-End Delay"
field count 124835
field mean 0.00010152733398492
field stddev 0.00015168236652319
field sum 12.674164738008
field sqrsum 0.0041588974439029
field min 8.992e-006
field max 0.000654375791
statistic Basic.rack[0].node[0].app 	hops
field count 124835
field mean 4.2374574438258
field stddev 1.2962251722364
field sum 528983
field sqrsum 2451289
field min 3
field max 6
statistic Basic.rack[0].node[1].app 	throughput
field count 124111
field mean 62056
field stddev 35827.903966973
field sum 7701832216
field sqrsum 6.3725729938406e+014
field min 1
field max 124111
statistic Basic.rack[0].node[1].app 	"End-to-End Delay"
field count 124111
field mean 0.00010199362699436
field stddev 0.00015208261961887
field sum 12.658531039898
field sqrsum 0.0041616449723081
field min 8.992e-006
field max 0.00062825709
statistic Basic.rack[0].node[1].app 	hops
field count 124111
field mean 4.2427987849586
field stddev 1.2964921758663
field sum 526578
field sqrsum 2442780
field min 3
field max 6
statistic Basic.rack[0].node[2].app 	throughput
field count 124606
field mean 62303.5
field stddev 35970.798158599
field sum 7763389921
field sqrsum 6.4491256412739e+014
field min 1
field max 124606
statistic Basic.rack[0].node[2].app 	"End-to-End Delay"
field count 124606
field mean 0.00010277501765859
field stddev 0.00015265850491795
field sum 12.806383850366
field sqrsum 0.0042200483922832
field min 8.992e-006
field max 0.000609469996
statistic Basic.rack[0].node[2].app 	hops
field count 124606
field mean 4.2502447715198
field stddev 1.2983334149555
field sum 529606
field sqrsum 2460998
field min 3
field max 6
statistic Basic.rack[0].node[3].app 	throughput
field count 124645
field mean 62323
field stddev 35982.056488848
field sum 7768250335
field sqrsum 6.455182980875e+014
field min 1
field max 124645
statistic Basic.rack[0].node[3].app 	"End-to-End Delay"
field count 124645
field mean 0.00010181974860296
field stddev 0.00015186967356128
field sum 12.691322564615
field sqrsum 0.0041670660658211
field min 8.992e-006
field max 0.000676111937
statistic Basic.rack[0].node[3].app 	hops
field count 124645
field mean 4.240715632396
field stddev 1.2974215163563
field sum 528584
field sqrsum 2451388
field min 3
field max 6
statistic Basic.rack[0].node[4].app 	throughput
field count 124735
field mean 62368
field stddev 36008.037250962
field sum 7779472480
field sqrsum 6.4691759301936e+014
field min 1
field max 124735
statistic Basic.rack[0].node[4].app 	"End-to-End Delay"
field count 124735
field mean 0.00010203450536759
field stddev 0.00015227059751985
field sum 12.727274027026
field sqrsum 0.0041907454035818
field min 8.992e-006
field max 0.00064015707
statistic Basic.rack[0].node[4].app 	hops
field count 124735
field mean 4.2420812121698
field stddev 1.2970354127675
field sum 529136
field sqrsum 2454478
field min 3
field max 6
statistic Basic.rack[0].node[5].app 	throughput
field count 124403
field mean 62202
field stddev 35912.197106276
field sum 7738115406
field sqrsum 6.4176575994021e+014
field min 1
field max 124403
statistic Basic.rack[0].node[5].app 	"End-to-End Delay"
field count 124403
field mean 0.00010250939478594
field stddev 0.0001526672866847
field sum 12.752476239555
field sqrsum 0.0042067234086439
field min 8.992e-006
field max 0.000667366164
statistic Basic.rack[0].node[5].app 	hops
field count 124403
field mean 4.2458381228748
field stddev 1.2971374852348
field sum 528195
field sqrsum 2451945
field min 3
field max 6
statistic Basic.rack[0].node[6].app 	throughput
field count 124505
field mean 62253
field stddev 35941.641970005
field sum 7750809765
field sqrsum 6.433456301308e+014
field min 1
field max 124505
statistic Basic.rack[0].node[6].app 	"End-to-End Delay"
field count 124505
field mean 0.00010198440262439
field stddev 0.00015219143780198
field sum 12.69756804875
field sqrsum 0.0041787446418282
field min 8.992e-006
field max 0.000635701087
statistic Basic.rack[0].node[6].app 	hops
field count 124505
field mean 4.2361350949761
field stddev 1.2973030295264
field sum 527420
field sqrsum 2443762
field min 3
field max 6
statistic Basic.rack[0].node[7].app 	throughput
field count 124737
field mean 62369
field stddev 36008.614601231
field sum 7779721953
field sqrsum 6.4694871140822e+014
field min 1
field max 124737
statistic Basic.rack[0].node[7].app 	"End-to-End Delay"
field count 124737
field mean 0.00010121387619626
field stddev 0.0001514821730063
field sum 12.625115275092
field sqrsum 0.0041401349786885
field min 8.992e-006
field max 0.00062740998
statistic Basic.rack[0].node[7].app 	hops
field count 124737
field mean 4.2408988511829
field stddev 1.2957762026405
field sum 528997
field sqrsum 2452859
field min 3
field max 6
statistic Basic.rack[0].node[8].app 	throughput
field count 124358
field mean 62179.5
field stddev 35899.206725219
field sum 7732518261
field sqrsum 6.4106958144038e+014
field min 1
field max 124358
statistic Basic.rack[0].node[8].app 	"End-to-End Delay"
field count 124358
field mean 0.00010190898007225
field stddev 0.00015206075201121
field sum 12.673196943824
field sqrsum 0.0041669538628864
field min 8.992e-006
field max 0.000628437645
statistic Basic.rack[0].node[8].app 	hops
field count 124358
field mean 4.2424773637402
field stddev 1.2966275543338
field sum 527586
field sqrsum 2447346
field min 3
field max 6
statistic Basic.rack[0].node[9].app 	throughput
field count 124070
field mean 62035.5
field stddev 35816.068286455
field sum 7696744485
field sqrsum 6.366259577508e+014
field min 1
field max 124070
statistic Basic.rack[0].node[9].app 	"End-to-End Delay"
field count 124070
field mean 0.00010109334911275
field stddev 0.00015127785273641
field sum 12.542651824419
field sqrsum 0.0041072963462468
field min 8.992e-006
field max 0.000629247545
statistic Basic.rack[0].node[9].app 	hops
field count 124070
field mean 4.2409446280326
field stddev 1.2948704932988
field sum 526174
field sqrsum 2439500
field min 3
field max 6
statistic Basic.rack[0].eps.queue[0] 	dropsum
field count 0
field mean nan
field stddev nan
field sum 0
field sqrsum 0
field min nan
field max nan
statistic Basic.rack[0].eps.queue[1] 	dropsum
field count 0
field mean nan
field stddev nan
field sum 0
field sqrsum 0
field min nan
field max nan
statistic Basic.rack[0].eps.queue[2] 	dropsum
field count 0
field mean nan
field stddev nan
field sum 0
field sqrsum 0
field min nan
field max nan
statistic Basic.rack[0].eps.queue[3] 	dropsum
field count 0
field mean nan
field stddev nan
field sum 0
field sqrsum 0
field min nan
field max nan
statistic Basic.rack[1].node[0].app 	throughput
field count 124814
field mean 62407.5
field stddev 36030.842586595
field sum 7789329705
field sqrsum 6.4814752830982e+014
field min 1
field max 124814
statistic Basic.rack[1].node[0].app 	"End-to-End Delay"
field count 124814
field mean 9.8933985306293e-005
field stddev 0.00015225761702528
field sum 12.34834644202
field sqrsum 0.0041151337628056
field min 8.992e-006
field max 0.000659327924
statistic Basic.rack[1].node[0].app 	hops
field count 124814
field mean 4.2422324418735
field stddev 1.2971692242038
field sum 529490
field sqrsum 2456236
field min 3
field max 6
statistic Basic.rack[1].node[1].app 	throughput
field count 124334
field mean 62167.5
field stddev 35892.278521989
field sum 7729533945
field sqrsum 6.4069849218974e+014
field min 1
field max 124334
statistic Basic.rack[1].node[1].app 	"End-to-End Delay"
field count 124334
field mean 9.7959068187774e-005
field stddev 0.00015166898667914
field sum 12.179642784059
field sqrsum 0.0040531983258468
field min 8.992e-006
field max 0.00066828598
statistic Basic.rack[1].node[1].app 	hops
field count 124334
field mean 4.2414946836746
field stddev 1.2945755231012
field sum 527362
field sqrsum 2445176
field min 3
field max 6
statistic Basic.rack[1].node[2].app 	throughput
field count 123906
field mean 61953.5
field stddev 35768.725564381
field sum 7676410371
field sqrsum 6.3410476108954e+014
field min 1
field max 123906
statistic Basic.rack[1].node[2].app 	"End-to-End Delay"
field count 123906
field mean 9.9268843878027e-005
field stddev 0.00015252602954759
field sum 12.300005369551
field sqrsum 0.0041035567362127
field min 8.992e-006
field max 0.000638774668
statistic Basic.rack[1].node[2].app 	hops
field count 123906
field mean 4.2425951931303
field stddev 1.2983269883676
field sum 525683
field sqrsum 2439121
field min 3
field max 6
statistic Basic.rack[1].node[3].app 	throughput
field count 124140
field mean 62070.5
field stddev 35836.275545877
field sum 7705431870
field sqrsum 6.3770411003849e+014
field min 1
field max 124140
statistic Basic.rack[1].node[3].app 	"End-to-End Delay"
field count 124140
field mean 9.8534083832404e-005
field stddev 0.0001521392171798
field sum 12.232021166955
field sqrsum 0.0040786346746659
field min 8.992e-006
field max 0.000647103745
statistic Basic.rack[1].node[3].app 	hops
field count 124140
field mean 4.2414693088449
field stddev 1.2950979980403
field sum 526536
field sqrsum 2441502
field min 3
field max 6
statistic Basic.rack[1].node[4].app 	throughput
field count 124884
field mean 62442.5
field stddev 36051.049846017
field sum 7798069170
field sqrsum 6.4923864617391e+014
field min 1
field max 124884
statistic Basic.rack[1].node[4].app 	"End-to-End Delay"
field count 124884
field mean 9.8806336139159e-005
field stddev 0.00015225412692185
field sum 12.339330482403
field sqrsum 0.004114156716626
field min 8.992e-006
field max 0.000649142271
statistic Basic.rack[1].node[4].app 	hops
field count 124884
field mean 4.2433218026328
field stddev 1.2967588076178
field sum 529923
field sqrsum 2458635
field min 3
field max 6
statistic Basic.rack[1].node[5].app 	throughput
field count 124746
field mean 62373.5
field stddev 36011.212677443
field sum 7780844631
field sqrsum 6.4708875650736e+014
field min 1
field max 124746
statistic Basic.rack[1].node[5].app 	"End-to-End Delay"
field count 124746
field mean 9.8976930401123e-005
field stddev 0.00015229760655803
field sum 12.346976159819
field sqrsum 0.0041154713074019
field min 8.992e-006
field max 0.000651977821
statistic Basic.rack[1].node[5].app 	hops
field count 124746
field mean 4.2460038798839
field stddev 1.2960956700817
field sum 529672
field sqrsum 2458544
field min 3
field max 6
statistic Basic.rack[1].node[6].app 	throughput
field count 124332
field mean 62166.5
field stddev 35891.701171719
field sum 7729285278
field sqrsum 6.4066757455129e+014
field min 1
field max 124332
statistic Basic.rack[1].node[6].app 	"End-to-End Delay"
field count 124332
field mean 9.8634374920493e-005
field stddev 0.00015188990191371
field sum 12.263409102615
field sqrsum 0.0040779772863492
field min 8.992e-006
field max 0.000659137415
statistic Basic.rack[1].node[6].app 	hops
field count 124332
field mean 4.2398658430653
field stddev 1.2973123630615
field sum 527151
field sqrsum 2444301
field min 3
field max 6
statistic Basic.rack[1].node[7].app 	throughput
field count 124619
field mean 62310
field stddev 35974.550935349
field sum 7765009890
field sqrsum 6.4511443332457e+014
field min 1
field max 124619
statistic Basic.rack[1].node[7].app 	"End-to-End Delay"
field count 124619
field mean 9.9195327718524e-005
field stddev 0.00015253257339431
field sum 12.361622544955
field sqrsum 0.0041256007597343
field min 8.992e-006
field max 0.000654160804
statistic Basic.rack[1].node[7].app 	hops
field count 124619
field mean 4.2454681870341
field stddev 1.2976482559435
field sum 529066
field sqrsum 2455976
field min 3
field max 6
statistic Basic.rack[1].node[8].app 	throughput
field count 123883
field mean 61942
field stddev 35762.086036285
field sum 7673560786
field sqrsum 6.3375171175495e+014
field min 1
field max 123883
statistic Basic.rack[1].node[8].app 	"End-to-End Delay"
field count 123883
field mean 9.8783133433011e-005
field stddev 0.00015240345650706
field sum 12.237550919082
field sqrsum 0.0040862477421906
field min 8.992e-006
field max 0.000667635586
statistic Basic.rack[1].node[8].app 	hops
field count 123883
field mean 4.2408966524866
field stddev 1.2962420557786
field sum 525375
field sqrsum 2436213
field min 3
field max 6
statistic Basic.rack[1].node[9].app 	throughput
field count 124803
field mean 62402
field stddev 36027.667160115
field sum 7787956806
field sqrsum 6.4797617815841e+014
field min 1
field max 124803
statistic Basic.rack[1].node[9].app 	"End-to-End Delay"
field count 124803
field mean 9.8612714693546e-005
field stddev 0.00015207167450698
field sum 12.307162631899
field sqrsum 0.0040997880834769
field min 8.992e-006
field max 0.000623237732
statistic Basic.rack[1].node[9].app 	hops
field count 124803
field mean 4.2417409837905
field stddev 1.2960161937197
field sum 529382
field sqrsum 2455126
field min 3
field max 6
statistic Basic.rack[1].eps.queue[0] 	dropsum
field count 0
field mean nan
field stddev nan
field sum 0
field sqrsum 0
field min nan
field max nan
statistic Basic.rack[1].eps.queue[1] 	dropsum
field count 0
field mean nan
field stddev nan
field sum 0
field sqrsum 0
field min nan
field max nan
statistic Basic.rack[1].eps.queue[2] 	dropsum
field count 0
field mean nan
field stddev nan
field sum 0
field sqrsum 0
field min nan
field max nan
statistic Basic.rack[1].eps.queue[3] 	dropsum
field count 0
field mean nan
field stddev nan
field sum 0
field sqrsum 0
field min nan
field max nan
statistic Basic.rack[2].node[0].app 	throughput
field count 124182
field mean 62091.5
field stddev 35848.39990153
field sum 7710646653
field sqrsum 6.3835158532412e+014
field min 1
field max 124182
statistic Basic.rack[2].node[0].app 	"End-to-End Delay"
field count 124182
field mean 7.7569881163717e-005
field stddev 0.0001320791325817
field sum 9.6327829826727
field sqrsum 0.0029135386183248
field min 8.496e-007
field max 0.000419039442
statistic Basic.rack[2].node[0].app 	hops
field count 124182
field mean 4.2431270232401
field stddev 0.82877283190797
field sum 526920
field sqrsum 2321084
field min 3
field max 5
statistic Basic.rack[2].node[1].app 	throughput
field count 123816
field mean 61908.5
field stddev 35742.744802267
field sum 7665262836
field sqrsum 6.327240106224e+014
field min 1
field max 123816
statistic Basic.rack[2].node[1].app 	"End-to-End Delay"
field count 123816
field mean 7.7362934161861e-005
field stddev 0.00013194528877448
field sum 9.5787690561849
field sqrsum 0.0028966062558807
field min 8.496e-007
field max 0.000419128001
statistic Basic.rack[2].node[1].app 	hops
field count 123816
field mean 4.2455579246624
field stddev 0.82905510413682
field sum 525668
field sqrsum 2316856
field min 3
field max 5
statistic Basic.rack[2].node[2].app 	throughput
field count 124355
field mean 62178
field stddev 35898.340699815
field sum 7732145190
field sqrsum 6.4102318745003e+014
field min 1
field max 124355
statistic Basic.rack[2].node[2].app 	"End-to-End Delay"
field count 124355
field mean 7.6688506955586e-005
field stddev 0.00013137724087477
field sum 9.5365992824619
field sqrsum 0.002877695041184
field min 8.496e-007
field max 0.000419039537
statistic Basic.rack[2].node[2].app 	hops
field count 124355
field mean 4.2451449479313
field stddev 0.82803226042669
field sum 527905
field sqrsum 2326295
field min 3
field max 5
statistic Basic.rack[2].node[3].app 	throughput
field count 123724
field mean 61862.5
field stddev 35716.186689884
field sum 7653875950
field sqrsum 6.3131464998385e+014
field min 1
field max 123724
statistic Basic.rack[2].node[3].app 	"End-to-End Delay"
field count 123724
field mean 7.7140019366946e-005
field stddev 0.00013171057186405
field sum 9.5440717561561
field sqrsum 0.0028825362420597
field min 8.496e-007
field max 0.000419037658
statistic Basic.rack[2].node[3].app 	hops
field count 123724
field mean 4.2465891823737
field stddev 0.82825035300934
field sum 525405
field sqrsum 2316053
field min 3
field max 5
statistic Basic.rack[2].node[4].app 	throughput
field count 124003
field mean 62002
field stddev 35796.727052437
field sum 7688434006
field sqrsum 6.3559515084201e+014
field min 1
field max 124003
statistic Basic.rack[2].node[4].app 	"End-to-End Delay"
field count 124003
field mean 7.7154140288653e-005
field stddev 0.00013178770693733
field sum 9.5673448582139
field sqrsum 0.002891826966155
field min 8.496e-007
field max 0.000419040708
statistic Basic.rack[2].node[4].app 	hops
field count 124003
field mean 4.2416393151779
field stddev 0.83092514844175
field sum 525976
field sqrsum 2316616
field min 3
field max 5
statistic Basic.rack[2].node[5].app 	throughput
field count 124773
field mean 62387
field stddev 36019.006906077
field sum 7784213151
field sqrsum 6.475090130642e+014
field min 1
field max 124773
statistic Basic.rack[2].node[5].app 	"End-to-End Delay"
field count 124773
field mean 7.6484030849671e-005
field stddev 0.00013131686198385
field sum 9.543141981206
field sqrsum 0.0028814810868949
field min 8.496e-007
field max 0.000419041233
statistic Basic.rack[2].node[5].app 	hops
field count 124773
field mean 4.2427047518293
field stddev 0.82957376970167
field sum 529375
field sqrsum 2331849
field min 3
field max 5
statistic Basic.rack[2].node[6].app 	throughput
field count 124008
field mean 62004.5
field stddev 35798.17042811
field sum 7689054036
field sqrsum 6.356720382822e+014
field min 1
field max 124008
statistic Basic.rack[2].node[6].app 	"End-to-End Delay"
field count 124008
field mean 7.7513076731579e-005
field stddev 0.00013206600124942
field sum 9.6122416193297
field sqrsum 0.0029079336692677
field min 8.496e-007
field max 0.000419106542
statistic Basic.rack[2].node[6].app 	hops
field count 124008
field mean 4.2448551706342
field stddev 0.83080987442847
field sum 526396
field sqrsum 2320070
field min 3
field max 5
statistic Basic.rack[2].node[7].app 	throughput
field count 123888
field mean 61944.5
field stddev 35763.529411958
field sum 7674180216
field sqrsum 6.3382845045994e+014
field min 1
field max 123888
statistic Basic.rack[2].node[7].app 	"End-to-End Delay"
field count 123888
field mean 7.666086576557e-005
field stddev 0.00013120948951755
field sum 9.4973613379649
field sqrsum 0.0028609058798438
field min 8.496e-007
field max 0.00041912737
statistic Basic.rack[2].node[7].app 	hops
field count 123888
field mean 4.2438492832236
field stddev 0.83064918585737
field sum 525762
field sqrsum 2316734
field min 3
field max 5
statistic Basic.rack[2].node[8].app 	throughput
field count 123468
field mean 61734.5
field stddev 35642.285855427
field sum 7622235246
field sqrsum 6.2740396831383e+014
field min 1
field max 123468
statistic Basic.rack[2].node[8].app 	"End-to-End Delay"
field count 123468
field mean 7.6766630285371e-005
field stddev 0.0001314552038084
field sum 9.4782223080742
field sqrsum 0.0028611790522823
field min 8.496e-007
field max 0.000419041364
statistic Basic.rack[2].node[8].app 	hops
field count 123468
field mean 4.2411880001296
field stddev 0.83010853487763
field sum 523651
field sqrsum 2305981
field min 3
field max 5
statistic Basic.rack[2].node[9].app 	throughput
field count 124580
field mean 62290.5
field stddev 35963.292605099
field sum 7760150490
field sqrsum 6.4450895207963e+014
field min 1
field max 124580
statistic Basic.rack[2].node[9].app 	"End-to-End Delay"
field count 124580
field mean 7.6561375201412e-005
field stddev 0.00013121288258053
field sum 9.5380161225919
field sqrsum 0.0028750979189717
field min 8.496e-007
field max 0.000419096689
statistic Basic.rack[2].node[9].app 	hops
field count 124580
field mean 4.2432733986194
field stddev 0.83001760130262
field sum 528627
field sqrsum 2328935
field min 3
field max 5
statistic Basic.rack[2].eps.queue[0] 	dropsum
field count 0
field mean nan
field stddev nan
field sum 0
field sqrsum 0
field min nan
field max nan
statistic Basic.rack[2].eps.queue[1] 	dropsum
field count 0
field mean nan
field stddev nan
field sum 0
field sqrsum 0
field min nan
field max nan
statistic Basic.rack[2].eps.queue[2] 	dropsum
field count 0
field mean nan
field stddev nan
field sum 0
field sqrsum 0
field min nan
field max nan
statistic Basic.rack[2].eps.queue[3] 	dropsum
field count 0
field mean nan
field stddev nan
field sum 0
field sqrsum 0
field min nan
field max nan
statistic Basic.rack[3].node[0].app 	throughput
field count 123498
field mean 61749.5
field stddev 35650.946109465
field sum 7625939751
field sqrsum 6.2786141355925e+014
field min 1
field max 123498
statistic Basic.rack[3].node[0].app 	"End-to-End Delay"
field count 123498
field mean 7.7499938284135e-005
field stddev 0.00013267284811091
field sum 9.5710873782142
field sqrsum 0.0029155633261634
field min 8.496e-007
field max 0.000419113673
statistic Basic.rack[3].node[0].app 	hops
field count 123498
field mean 4.2441011190465
field stddev 0.82972798337966
field sum 524138
field sqrsum 2309516
field min 3
field max 5
statistic Basic.rack[3].node[1].app 	throughput
field count 124024
field mean 62012.5
field stddev 35802.789230263
field sum 7691038300
field sqrsum 6.359181197589e+014
field min 1
field max 124024
statistic Basic.rack[3].node[1].app 	"End-to-End Delay"
field count 124024
field mean 7.7586343378426e-005
field stddev 0.00013272193571657
field sum 9.6225686511659
field sqrsum 0.0029312589784566
field min 8.496e-007
field max 0.000419040353
statistic Basic.rack[3].node[1].app 	hops
field count 124024
field mean 4.2440656647101
field stddev 0.82866166237592
field sum 526366
field sqrsum 2319096
field min 3
field max 5
statistic Basic.rack[3].node[2].app 	throughput
field count 124324
field mean 62162.5
field stddev 35889.391770643
field sum 7728290650
field sqrsum 6.4054391394395e+014
field min 1
field max 124324
statistic Basic.rack[3].node[2].app 	"End-to-End Delay"
field count 124324
field mean 7.7720946409195e-005
field stddev 0.00013272907770886
field sum 9.6625789413767
field sqrsum 0.002941184074295
field min 8.496e-007
field max 0.000419037863
statistic Basic.rack[3].node[2].app 	hops
field count 124324
field mean 4.2444419420225
field stddev 0.82923063355509
field sum 527686
field sqrsum 2325220
field min 3
field max 5
statistic Basic.rack[3].node[3].app 	throughput
field count 123573
field mean 61787
field stddev 35672.59674456
field sum 7635204951
field sqrsum 6.290059993416e+014
field min 1
field max 123573
statistic Basic.rack[3].node[3].app 	"End-to-End Delay"
field count 123573
field mean 7.7687997428295e-005
field stddev 0.0001328064669876
field sum 9.6001389062066
field sqrsum 0.0029253238435148
field min 8.496e-007
field max 0.000419152509
statistic Basic.rack[3].node[3].app 	hops
field count 123573
field mean 4.2444546947958
field stddev 0.82913551901682
field sum 524500
field sqrsum 2311168
field min 3
field max 5
statistic Basic.rack[3].node[4].app 	throughput
field count 123633
field mean 61817
field stddev 35689.917252636
field sum 7642621161
field sqrsum 6.2992266887233e+014
field min 1
field max 123633
statistic Basic.rack[3].node[4].app 	"End-to-End Delay"
field count 123633
field mean 7.7526162130614e-005
field stddev 0.00013271485606406
field sum 9.5847920026941
field sqrsum 0.0029206313635308
field min 8.496e-007
field max 0.000419038435
statistic Basic.rack[3].node[4].app 	hops
field count 123633
field mean 4.2421198223775
field stddev 0.82931902014999
field sum 524466
field sqrsum 2309878
field min 3
field max 5
statistic Basic.rack[3].node[5].app 	throughput
field count 123825
field mean 61913
field stddev 35745.342878479
field sum 7666377225
field sqrsum 6.3286199538282e+014
field min 1
field max 123825
statistic Basic.rack[3].node[5].app 	"End-to-End Delay"
field count 123825
field mean 7.7067211434034e-005
field stddev 0.00013218791746711
field sum 9.5428474558193
field sqrsum 0.0028990973259601
field min 8.496e-007
field max 0.000419027628
statistic Basic.rack[3].node[5].app 	hops
field count 123825
field mean 4.2387643852211
field stddev 0.83221345400797
field sum 524865
field sqrsum 2310537
field min 3
field max 5
statistic Basic.rack[3].node[6].app 	throughput
field count 123793
field mean 61897
field stddev 35736.105274171
field sum 7662415321
field sqrsum 6.3237147402681e+014
field min 1
field max 123793
statistic Basic.rack[3].node[6].app 	"End-to-End Delay"
field count 123793
field mean 7.7997259370697e-005
field stddev 0.00013290801782075
field sum 9.6555147292767
field sqrsum 0.0029398325710563
field min 8.496e-007
field max 0.000419041185
statistic Basic.rack[3].node[6].app 	hops
field count 123793
field mean 4.2492951943971
field stddev 0.82862262813037
field sum 526033
field sqrsum 2320267
field min 3
field max 5
statistic Basic.rack[3].node[7].app 	throughput
field count 124262
field mean 62131.5
field stddev 35871.493912298
field sum 7720584453
field sqrsum 6.3958608372728e+014
field min 1
field max 124262
statistic Basic.rack[3].node[7].app 	"End-to-End Delay"
field count 124262
field mean 7.7720823693251e-005
field stddev 0.00013272632577694
field sum 9.6577449937707
field sqrsum 0.0029396241611036
field min 8.496e-007
field max 0.000419090455
statistic Basic.rack[3].node[7].app 	hops
field count 124262
field mean 4.2435257761826
field stddev 0.82948723802414
field sum 527309
field sqrsum 2323147
field min 3
field max 5
statistic Basic.rack[3].node[8].app 	throughput
field count 124172
field mean 62086.5
field stddev 35845.513150184
field sum 7709404878
field sqrsum 6.3819738480897e+014
field min 1
field max 124172
statistic Basic.rack[3].node[8].app 	"End-to-End Delay"
field count 124172
field mean 7.7902579438439e-005
field stddev 0.00013301377837556
field sum 9.6733190940298
field sqrsum 0.0029504924443917
field min 8.496e-007
field max 0.000419145082
statistic Basic.rack[3].node[8].app 	hops
field count 124172
field mean 4.243484843604
field stddev 0.83025746222479
field sum 526922
field sqrsum 2321580
field min 3
field max 5
statistic Basic.rack[3].node[9].app 	throughput
field count 124341
field mean 62171
field stddev 35894.299247931
field sum 7730404311
field sqrsum 6.4080671175747e+014
field min 1
field max 124341
statistic Basic.rack[3].node[9].app 	"End-to-End Delay"
field count 124341
field mean 7.8655622622495e-005
field stddev 0.00013364433205867
field sum 9.7801187725037
field sqrsum 0.0029900741348549
field min 8.496e-007
field max 0.000419181296
statistic Basic.rack[3].node[9].app 	hops
field count 124341
field mean 4.2470464287725
field stddev 0.82798889414189
field sum 528082
field sqrsum 2328032
field min 3
field max 5
statistic Basic.rack[3].eps.queue[0] 	dropsum
field count 0
field mean nan
field stddev nan
field sum 0
field sqrsum 0
field min nan
field max nan
statistic Basic.rack[3].eps.queue[1] 	dropsum
field count 0
field mean nan
field stddev nan
field sum 0
field sqrsum 0
field min nan
field max nan
statistic Basic.rack[3].eps.queue[2] 	dropsum
field count 0
field mean nan
field stddev nan
field sum 0
field sqrsum 0
field min nan
field max nan
statistic Basic.rack[3].eps.queue[3] 	dropsum
field count 0
field mean nan
field stddev nan
field sum 0
field sqrsum 0
field min nan
field max nan
statistic Basic.rack[4].node[0].app 	throughput
field count 124347
field mean 62174
field stddev 35896.031298738
field sum 7731150378
field sqrsum 6.4089948108557e+014
field min 1
field max 124347
statistic Basic.rack[4].node[0].app 	"End-to-End Delay"
field count 124347
field mean 9.9129623563204e-005
field stddev 0.00015316631239698
field sum 12.326471301214
field sqrsum 0.0041390655794213
field min 8.992e-006
field max 0.000630077225
statistic Basic.rack[4].node[0].app 	hops
field count 124347
field mean 4.2407456553033
field stddev 1.2954771190091
field sum 527324
field sqrsum 2444932
field min 3
field max 6
statistic Basic.rack[4].node[1].app 	throughput
field count 124298
field mean 62149.5
field stddev 35881.886217143
field sum 7725058551
field sqrsum 6.4014212686765e+014
field min 1
field max 124298
statistic Basic.rack[4].node[1].app 	"End-to-End Delay"
field count 124298
field mean 9.8656177986369e-005
field stddev 0.00015282888270574
field sum 12.26276561135
field sqrsum 0.0041129612732196
field min 8.992e-006
field max 0.000623163259
statistic Basic.rack[4].node[1].app 	hops
field count 124298
field mean 4.2353537466411
field stddev 1.2950241823275
field sum 526446
field sqrsum 2438142
field min 3
field max 6
statistic Basic.rack[4].node[2].app 	throughput
field count 124773
field mean 62387
field stddev 36019.006906077
field sum 7784213151
field sqrsum 6.475090130642e+014
field min 1
field max 124773
statistic Basic.rack[4].node[2].app 	"End-to-End Delay"
field count 124773
field mean 0.00010014725537765
field stddev 0.00015396830969389
field sum 12.495673495236
field sqrsum 0.0042092824305834
field min 8.992e-006
field max 0.000636786511
statistic Basic.rack[4].node[2].app 	hops
field count 124773
field mean 4.2440271533104
field stddev 1.297881123029
field sum 529540
field sqrsum 2457560
field min 3
field max 6
statistic Basic.rack[4].node[3].app 	throughput
field count 124098
field mean 62049.5
field stddev 35824.151190224
field sum 7700218851
field sqrsum 6.3705707272055e+014
field min 1
field max 124098
statistic Basic.rack[4].node[3].app 	"End-to-End Delay"
field count 124098
field mean 9.9703103504656e-005
field stddev 0.00015339707326035
field sum 12.372955738721
field sqrsum 0.0041537066594186
field min 8.992e-006
field max 0.000634056016
statistic Basic.rack[4].node[3].app 	hops
field count 124098
field mean 4.2414785089204
field stddev 1.298072917745
field sum 526359
field sqrsum 2441643
field min 3
field max 6
statistic Basic.rack[4].node[4].app 	throughput
field count 124260
field mean 62130.5
field stddev 35870.916562028
field sum 7720335930
field sqrsum 6.3955520188651e+014
field min 1
field max 124260
statistic Basic.rack[4].node[4].app 	"End-to-End Delay"
field count 124260
field mean 9.9521716015996e-005
field stddev 0.0001533618151895
field sum 12.366568432148
field sqrsum 0.0041532947002223
field min 8.992e-006
field max 0.000653529278
statistic Basic.rack[4].node[4].app 	hops
field count 124260
field mean 4.2453243199742
field stddev 1.2957582012494
field sum 527524
field sqrsum 2448140
field min 3
field max 6
statistic Basic.rack[4].node[5].app 	throughput
field count 124248
field mean 62124.5
field stddev 35867.452460413
field sum 7718844876
field sqrsum 6.3936993171712e+014
field min 1
field max 124248
statistic Basic.rack[4].node[5].app 	"End-to-End Delay"
field count 124248
field mean 9.9846401357195e-005
field stddev 0.00015358536827039
field sum 12.405715675829
field sqrsum 0.00416946212043
field min 8.992e-006
field max 0.000644060095
statistic Basic.rack[4].node[5].app 	hops
field count 124248
field mean 4.2429978752173
field stddev 1.2970806266999
field sum 527184
field sqrsum 2445876
field min 3
field max 6
statistic Basic.rack[4].node[6].app 	throughput
field count 124414
field mean 62207.5
field stddev 35915.372532756
field sum 7739483905
field sqrsum 6.4193601353242e+014
field min 1
field max 124414
statistic Basic.rack[4].node[6].app 	"End-to-End Delay"
field count 124414
field mean 9.9652436480828e-005
field stddev 0.00015372841893342
field sum 12.398158232326
field sqrsum 0.0041756877896729
field min 8.992e-006
field max 0.000625461803
statistic Basic.rack[4].node[6].app 	hops
field count 124414
field mean 4.2411947208514
field stddev 1.2967569252866
field sum 527664
field sqrsum 2447136
field min 3
field max 6
statistic Basic.rack[4].node[7].app 	throughput
field count 124713
field mean 62357
field stddev 36001.686398001
field sum 7776728541
field sqrsum 6.4657535659867e+014
field min 1
field max 124713
statistic Basic.rack[4].node[7].app 	"End-to-End Delay"
field count 124713
field mean 9.9774561989847e-005
field stddev 0.00015356159020644
field sum 12.44318494944
field sqrsum 0.0041823672017782
field min 8.992e-006
field max 0.000631932814
statistic Basic.rack[4].node[7].app 	hops
field count 124713
field mean 4.2397264118416
field stddev 1.2981254695252
field sum 528749
field sqrsum 2451907
field min 3
field max 6
statistic Basic.rack[4].node[8].app 	throughput
field count 124775
field mean 62388
field stddev 36019.584256346
field sum 7784462700
field sqrsum 6.475401504159e+014
field min 1
field max 124775
statistic Basic.rack[4].node[8].app 	"End-to-End Delay"
field count 124775
field mean 9.991515664617e-005
field stddev 0.00015383047144772
field sum 12.466913670526
field sqrsum 0.0041982623535617
field min 8.992e-006
field max 0.000621181545
statistic Basic.rack[4].node[8].app 	hops
field count 124775
field mean 4.2405209376878
field stddev 1.2974287086154
field sum 529111
field sqrsum 2453741
field min 3
field max 6
statistic Basic.rack[4].node[9].app 	throughput
field count 124766
field mean 62383.5
field stddev 36016.986180135
field sum 7783339761
field sqrsum 6.4740004019387e+014
field min 1
field max 124766
statistic Basic.rack[4].node[9].app 	"End-to-End Delay"
field count 124766
field mean 9.9516041171895e-005
field stddev 0.0001534399551376
field sum 12.416218392853
field sqrsum 0.0041730575822003
field min 8.992e-006
field max 0.000646292008
statistic Basic.rack[4].node[9].app 	hops
field count 124766
field mean 4.2454033951557
field stddev 1.2962193710688
field sum 529682
field sqrsum 2458342
field min 3
field max 6
statistic Basic.rack[4].eps.queue[0] 	dropsum
field count 0
field mean nan
field stddev nan
field sum 0
field sqrsum 0
field min nan
field max nan
statistic Basic.rack[4].eps.queue[1] 	dropsum
field count 0
field mean nan
field stddev nan
field sum 0
field sqrsum 0
field min nan
field max nan
statistic Basic.rack[4].eps.queue[2] 	dropsum
field count 0
field mean nan
field stddev nan
field sum 0
field sqrsum 0
field min nan
field max nan
statistic Basic.rack[4].eps.queue[3] 	dropsum
field count 0
field mean nan
field stddev nan
field sum 0
field sqrsum 0
field min nan
field max nan
statistic Basic.rack[5].node[0].app 	throughput
field count 124956
field mean 62478.5
field stddev 36071.834455708
field sum 7807063446
field sqrsum 6.5036221566007e+014
field min 1
field max 124956
statistic Basic.rack[5].node[0].app 	"End-to-End Delay"
field count 124956
field mean 0.0001022628470477
field stddev 0.00015296342042166
field sum 12.778356315692
field sqrsum 0.0042304241944597
field min 8.992e-006
field max 0.000643054001
statistic Basic.rack[5].node[0].app 	hops
field count 124956
field mean 4.2393242421332
field stddev 1.295727006496
field sum 529729
field sqrsum 2455481
field min 3
field max 6
statistic Basic.rack[5].node[1].app 	throughput
field count 124329
field mean 62165
field stddev 35890.835146316
field sum 7728912285
field sqrsum 6.406211999586e+014
field min 1
field max 124329
statistic Basic.rack[5].node[1].app 	"End-to-End Delay"
field count 124329
field mean 0.00010339526324788
field stddev 0.00015386706067034
field sum 12.855029684345
field sqrsum 0.0042726235745631
field min 8.992e-006
field max 0.000652970756
statistic Basic.rack[5].node[1].app 	hops
field count 124329
field mean 4.2426706560818
field stddev 1.2984246233186
field sum 527487
field sqrsum 2447559
field min 3
field max 6
statistic Basic.rack[5].node[2].app 	throughput
field count 124302
field mean 62151.5
field stddev 35883.040917681
field sum 7725555753
field sqrsum 6.4020392932486e+014
field min 1
field max 124302
statistic Basic.rack[5].node[2].app 	"End-to-End Delay"
field count 124302
field mean 0.00010180512559409
field stddev 0.0001525048813579
field sum 12.654580721597
field sqrsum 0.0041792613750034
field min 8.992e-006
field max 0.000648463134
statistic Basic.rack[5].node[2].app 	hops
field count 124302
field mean 4.2327637527956
field stddev 1.295902220923
field sum 526141
field sqrsum 2435777
field min 3
field max 6
statistic Basic.rack[5].node[3].app 	throughput
field count 124937
field mean 62469
field stddev 36066.349628151
field sum 7804689453
field sqrsum 6.5006559235612e+014
field min 1
field max 124937
statistic Basic.rack[5].node[3].app 	"End-to-End Delay"
field count 124937
field mean 0.00010305165044242
field stddev 0.00015338255228574
field sum 12.874964051324
field sqrsum 0.0042660565358166
field min 8.992e-006
field max 0.000667491668
statistic Basic.rack[5].node[3].app 	hops
field count 124937
field mean 4.2423381384218
field stddev 1.298330036561
field sum 530025
field sqrsum 2459145
field min 3
field max 6
statistic Basic.rack[5].node[4].app 	throughput
field count 125330
field mean 62665.5
field stddev 36179.798956047
field sum 7853867115
field sqrsum 6.56219394971e+014
field min 1
field max 125330
statistic Basic.rack[5].node[4].app 	"End-to-End Delay"
field count 125330
field mean 0.00010221166504713
field stddev 0.00015292466672664
field sum 12.810187980357
field sqrsum 0.0042402888334858
field min 8.992e-006
field max 0.000648626805
statistic Basic.rack[5].node[4].app 	hops
field count 125330
field mean 4.2384744275114
field stddev 1.2955993955429
field sum 531208
field sqrsum 2461886
field min 3
field max 6
statistic Basic.rack[5].node[5].app 	throughput
field count 123910
field mean 61955.5
field stddev 35769.880264919
field sum 7676906005
field sqrsum 6.3416617435504e+014
field min 1
field max 123910
statistic Basic.rack[5].node[5].app 	"End-to-End Delay"
field count 123910
field mean 0.0001023139711502
field stddev 0.00015278943146525
field sum 12.677724165222
field sqrsum 0.0041897156305139
field min 8.992e-006
field max 0.000631813373
statistic Basic.rack[5].node[5].app 	hops
field count 123910
field mean 4.2416915503188
field stddev 1.2961067374544
field sum 525588
field sqrsum 2437536
field min 3
field max 6
statistic Basic.rack[5].node[6].app 	throughput
field count 124558
field mean 62279.5
field stddev 35956.941752138
field sum 7757409961
field sqrsum 6.4416756575148e+014
field min 1
field max 124558
statistic Basic.rack[5].node[6].app 	"End-to-End Delay"
field count 124558
field mean 0.00010207356284512
field stddev 0.00015282381977081
field sum 12.714078840862
field sqrsum 0.0042068149936371
field min 8.992e-006
field max 0.000653230078
statistic Basic.rack[5].node[6].app 	hops
field count 124558
field mean 4.2402896642528
field stddev 1.2951826496845
field sum 528162
field sqrsum 2448504
field min 3
field max 6
statistic Basic.rack[5].node[7].app 	throughput
field count 124492
field mean 62246.5
field stddev 35937.889193255
field sum 7749191278
field sqrsum 6.4314413011761e+014
field min 1
field max 124492
statistic Basic.rack[5].node[7].app 	"End-to-End Delay"
field count 124492
field mean 0.00010295232816993
field stddev 0.00015334550604785
field sum 12.816741238531
field sqrsum 0.0042468998224814
field min 8.992e-006
field max 0.000680762312
statistic Basic.rack[5].node[7].app 	hops
field count 124492
field mean 4.2439996144331
field stddev 1.2973541683955
field sum 528344
field sqrsum 2451826
field min 3
field max 6
statistic Basic.rack[5].node[8].app 	throughput
field count 124542
field mean 62271.5
field stddev 35952.322949985
field sum 7755417153
field sqrsum 6.4391936051834e+014
field min 1
field max 124542
statistic Basic.rack[5].node[8].app 	"End-to-End Delay"
field count 124542
field mean 0.00010226601551774
field stddev 0.00015296381748599
field sum 12.73641410461
field sqrsum 0.0042165038553263
field min 8.992e-006
field max 0.000656730565
statistic Basic.rack[5].node[8].app 	hops
field count 124542
field mean 4.2391803568274
field stddev 1.29570331896
field sum 527956
field sqrsum 2447186
field min 3
field max 6
statistic Basic.rack[5].node[9].app 	throughput
field count 124670
field mean 62335.5
field stddev 35989.273367213
field sum 7771366785
field sqrsum 6.459067885129e+014
field min 1
field max 124670
statistic Basic.rack[5].node[9].app 	"End-to-End Delay"
field count 124670
field mean 0.0001026516639495
field stddev 0.00015335862835113
field sum 12.797582944584
field sqrsum 0.004245767049408
field min 8.992e-006
field max 0.000660902228
statistic Basic.rack[5].node[9].app 	hops
field count 124670
field mean 4.2376995267506
field stddev 1.2969464984093
field sum 528314
field sqrsum 2448538
field min 3
field max 6
statistic Basic.rack[5].eps.queue[0] 	dropsum
field count 0
field mean nan
field stddev nan
field sum 0
field sqrsum 0
field min nan
field max nan
statistic Basic.rack[5].eps.queue[1] 	dropsum
field count 0
field mean nan
field stddev nan
field sum 0
field sqrsum 0
field min nan
field max nan
statistic Basic.rack[5].eps.queue[2] 	dropsum
field count 0
field mean nan
field stddev nan
field sum 0
field sqrsum 0
field min nan
field max nan
statistic Basic.rack[5].eps.queue[3] 	dropsum
field count 0
field mean nan
field stddev nan
field sum 0
field sqrsum 0
field min nan
field max nan
statistic Basic.rack[6].node[0].app 	throughput
field count 124359
field mean 62180
field stddev 35899.495400353
field sum 7732642620
field sqrsum 6.4108504660126e+014
field min 1
field max 124359
statistic Basic.rack[6].node[0].app 	"End-to-End Delay"
field count 124359
field mean 8.0760234591153e-005
field stddev 0.00013161973593741
field sum 10.043262013521
field sqrsum 0.0029654437066634
field min 8.496e-007
field max 0.000419038749
statistic Basic.rack[6].node[0].app 	hops
field count 124359
field mean 4.243207166349
field stddev 0.8298496869998
field sum 527681
field sqrsum 2324699
field min 3
field max 5
statistic Basic.rack[6].node[1].app 	throughput
field count 123682
field mean 61841.5
field stddev 35704.062334231
field sum 7648680403
field sqrsum 6.3067194262936e+014
field min 1
field max 123682
statistic Basic.rack[6].node[1].app 	"End-to-End Delay"
field count 123682
field mean 8.1275049515088e-005
field stddev 0.00013217978785961
field sum 10.052260674125
field sqrsum 0.0029778901202103
field min 8.496e-007
field max 0.00041904106
statistic Basic.rack[6].node[1].app 	hops
field count 123682
field mean 4.246155463204
field stddev 0.83080305825899
field sum 525173
field sqrsum 2315335
field min 3
field max 5
statistic Basic.rack[6].node[2].app 	throughput
field count 123848
field mean 61924.5
field stddev 35751.982406574
field sum 7669225476
field sqrsum 6.3321471424292e+014
field min 1
field max 123848
statistic Basic.rack[6].node[2].app 	"End-to-End Delay"
field count 123848
field mean 8.0220496038258e-005
field stddev 0.00013141178240868
field sum 9.9351479933462
field sqrsum 0.0029357233475091
field min 8.496e-007
field max 0.000419166541
statistic Basic.rack[6].node[2].app 	hops
field count 123848
field mean 4.2443398359279
field stddev 0.82928385406845
field sum 525653
field sqrsum 2316221
field min 3
field max 5
statistic Basic.rack[6].node[3].app 	throughput
field count 123767
field mean 61884
field stddev 35728.599720672
field sum 7659197028
field sqrsum 6.3197311210866e+014
field min 1
field max 123767
statistic Basic.rack[6].node[3].app 	"End-to-End Delay"
field count 123767
field mean 7.9956116679635e-005
field stddev 0.00013113773517245
field sum 9.8959286930884
field sqrsum 0.0029196569992146
field min 8.496e-007
field max 0.000419037897
statistic Basic.rack[6].node[3].app 	hops
field count 123767
field mean 4.2408315625328
field stddev 0.83006880273724
field sum 524875
field sqrsum 2311183
field min 3
field max 5
statistic Basic.rack[6].node[4].app 	throughput
field count 123514
field mean 61757.5
field stddev 35655.564911619
field sum 7627915855
field sqrsum 6.2810547524826e+014
field min 1
field max 123514
statistic Basic.rack[6].node[4].app 	"End-to-End Delay"
field count 123514
field mean 8.1311792135095e-005
field stddev 0.00013223553685946
field sum 10.043144693774
field sqrsum 0.0029764037100575
field min 8.496e-007
field max 0.000419091573
statistic Basic.rack[6].node[4].app 	hops
field count 123514
field mean 4.2449277005036
field stddev 0.83052824564328
field sum 524308
field sqrsum 2310846
field min 3
field max 5
statistic Basic.rack[6].node[5].app 	throughput
field count 123702
field mean 61851.5
field stddev 35709.835836923
field sum 7651154253
field sqrsum 6.3097793932116e+014
field min 1
field max 123702
statistic Basic.rack[6].node[5].app 	"End-to-End Delay"
field count 123702
field mean 8.0360371673202e-005
field stddev 0.00013133868768844
field sum 9.9407386967184
field sqrsum 0.0029326652605416
field min 8.496e-007
field max 0.000419036647
statistic Basic.rack[6].node[5].app 	hops
field count 123702
field mean 4.2442806098527
field stddev 0.82899965670001
field sum 525026
field sqrsum 2313370
field min 3
field max 5
statistic Basic.rack[6].node[6].app 	throughput
field count 123946
field mean 61973.5
field stddev 35780.272569765
field sum 7681367431
field sqrsum 6.3471907219096e+014
field min 1
field max 123946
statistic Basic.rack[6].node[6].app 	"End-to-End Delay"
field count 123946
field mean 8.1218038187752e-005
field stddev 0.00013199887022792
field sum 10.066650961219
field sqrsum 0.0029771743545347
field min 8.496e-007
field max 0.000419164946
statistic Basic.rack[6].node[6].app 	hops
field count 123946
field mean 4.2485195165637
field stddev 0.82878473000925
field sum 526587
field sqrsum 2322351
field min 3
field max 5
statistic Basic.rack[6].node[7].app 	throughput
field count 124175
field mean 62088
field stddev 35846.379175588
field sum 7709777400
field sqrsum 6.382436423558e+014
field min 1
field max 124175
statistic Basic.rack[6].node[7].app 	"End-to-End Delay"
field count 124175
field mean 8.042777035599e-005
field stddev 0.00013150160404254
field sum 9.9871183839551
field sqrsum 0.0029505419001618
field min 8.496e-007
field max 0.000419049234
statistic Basic.rack[6].node[7].app 	hops
field count 124175
field mean 4.2441071069056
field stddev 0.82992798742541
field sum 527012
field sqrsum 2322224
field min 3
field max 5
statistic Basic.rack[6].node[8].app 	throughput
field count 123473
field mean 61737
field stddev 35643.7292311
field sum 7622852601
field sqrsum 6.2748019375305e+014
field min 1
field max 123473
statistic Basic.rack[6].node[8].app 	"End-to-End Delay"
field count 123473
field mean 8.1096346512071e-005
field stddev 0.00013201712112577
field sum 10.013209192885
field sqrsum 0.002963968937223
field min 8.496e-007
field max 0.000419040327
statistic Basic.rack[6].node[8].app 	hops
field count 123473
field mean 4.2462238708058
field stddev 0.82860561045405
field sum 524294
field sqrsum 2311044
field min 3
field max 5
statistic Basic.rack[6].node[9].app 	throughput
field count 123815
field mean 61908
field stddev 35742.456127133
field sum 7665139020
field sqrsum 6.3270868022054e+014
field min 1
field max 123815
statistic Basic.rack[6].node[9].app 	"End-to-End Delay"
field count 123815
field mean 8.0110856739833e-005
field stddev 0.00013140264837053
field sum 9.9189257272424
field sqrsum 0.0029324673837821
field min 8.496e-007
field max 0.000419197319
statistic Basic.rack[6].node[9].app 	hops
field count 123815
field mean 4.2420062189557
field stddev 0.83024839735183
field sum 525224
field sqrsum 2313350
field min 3
field max 5
statistic Basic.rack[6].eps.queue[0] 	dropsum
field count 0
field mean nan
field stddev nan
field sum 0
field sqrsum 0
field min nan
field max nan
statistic Basic.rack[6].eps.queue[1] 	dropsum
field count 32708
field mean 16354.5
field stddev 9442.1306387912
field sum 534922986
field sqrsum 11664352325054
field min 1
field max 32708
statistic Basic.rack[6].eps.queue[2] 	dropsum
field count 0
field mean nan
field stddev nan
field sum 0
field sqrsum 0
field min nan
field max nan
statistic Basic.rack[6].eps.queue[3] 	dropsum
field count 0
field mean nan
field stddev nan
field sum 0
field sqrsum 0
field min nan
field max nan
statistic Basic.rack[7].node[0].app 	throughput
field count 124006
field mean 62003.5
field stddev 35797.593077841
field sum 7688806021
field sqrsum 6.3564128256209e+014
field min 1
field max 124006
statistic Basic.rack[7].node[0].app 	"End-to-End Delay"
field count 124006
field mean 8.0871400755109e-005
field stddev 0.00013166024394995
field sum 10.028538922038
field sqrsum 0.0029605767220346
field min 8.496e-007
field max 0.000419039663
statistic Basic.rack[7].node[0].app 	hops
field count 124006
field mean 4.2432301662823
field stddev 0.82891425405024
field sum 526186
field sqrsum 2317932
field min 3
field max 5
statistic Basic.rack[7].node[1].app 	throughput
field count 124126
field mean 62063.5
field stddev 35832.234093992
field sum 7703694001
field sqrsum 6.3748838227675e+014
field min 1
field max 124126
statistic Basic.rack[7].node[1].app 	"End-to-End Delay"
field count 124126
field mean 8.1341660029266e-005
field stddev 0.00013210523266078
field sum 10.096614892793
field sqrsum 0.0029874791596665
field min 8.496e-007
field max 0.000419034747
statistic Basic.rack[7].node[1].app 	hops
field count 124126
field mean 4.2445176675314
field stddev 0.83030051596377
field sum 526855
field sqrsum 2321817
field min 3
field max 5
statistic Basic.rack[7].node[2].app 	throughput
field count 122854
field mean 61427.5
field stddev 35465.039322785
field sum 7546614085
field sqrsum 6.1809033340376e+014
field min 1
field max 122854
statistic Basic.rack[7].node[2].app 	"End-to-End Delay"
field count 122854
field mean 8.0770341948218e-005
field stddev 0.00013151374044386
field sum 9.9229595897064
field sqrsum 0.0029263296100426
field min 8.496e-007
field max 0.000419032609
statistic Basic.rack[7].node[2].app 	hops
field count 122854
field mean 4.2453481368128
field stddev 0.82842588026164
field sum 521558
field sqrsum 2298508
field min 3
field max 5
statistic Basic.rack[7].node[3].app 	throughput
field count 124211
field mean 62106
field stddev 35856.771480433
field sum 7714248366
field sqrsum 6.3879890727561e+014
field min 1
field max 124211
statistic Basic.rack[7].node[3].app 	"End-to-End Delay"
field count 124211
field mean 8.0967292616371e-005
field stddev 0.00013180600533242
field sum 10.057028383172
field sqrsum 0.0029721687099598
field min 8.496e-007
field max 0.000419079917
statistic Basic.rack[7].node[3].app 	hops
field count 124211
field mean 4.2427079727238
field stddev 0.82987298881975
field sum 526991
field sqrsum 2321411
field min 3
field max 5
statistic Basic.rack[7].node[4].app 	throughput
field count 124071
field mean 62036
field stddev 35816.356961589
field sum 7696868556
field sqrsum 6.3664135136384e+014
field min 1
field max 124071
statistic Basic.rack[7].node[4].app 	"End-to-End Delay"
field count 124071
field mean 8.1489625763318e-005
field stddev 0.00013222147252216
field sum 10.110499358081
field sqrsum 0.0029929567919111
field min 8.496e-007
field max 0.000419038728
statistic Basic.rack[7].node[4].app 	hops
field count 124071
field mean 4.2437072321493
field stddev 0.83011749929635
field sum 526521
field sqrsum 2319897
field min 3
field max 5
statistic Basic.rack[7].node[5].app 	throughput
field count 123495
field mean 61748
field stddev 35650.080084062
field sum 7625569260
field sqrsum 6.2781565903222e+014
field min 1
field max 123495
statistic Basic.rack[7].node[5].app 	"End-to-End Delay"
field count 123495
field mean 8.1521603153244e-005
field stddev 0.00013232153874142
field sum 10.06751038141
field sqrsum 0.0029829747495565
field min 8.496e-007
field max 0.000419160366
statistic Basic.rack[7].node[5].app 	hops
field count 123495
field mean 4.2438641240536
field stddev 0.82875404769808
field sum 524096
field sqrsum 2309012
field min 3
field max 5
statistic Basic.rack[7].node[6].app 	throughput
field count 124380
field mean 62190.5
field stddev 35905.55757818
field sum 7735254390
field sqrsum 6.4140987243693e+014
field min 1
field max 124380
statistic Basic.rack[7].node[6].app 	"End-to-End Delay"
field count 124380
field mean 8.1468937692047e-005
field stddev 0.00013209863588583
field sum 10.133106470137
field sqrsum 0.0029959531392011
field min 8.496e-007
field max 0.000419039668
statistic Basic.rack[7].node[6].app 	hops
field count 124380
field mean 4.2470976041164
field stddev 0.83072138823328
field sum 528254
field sqrsum 2329380
field min 3
field max 5
statistic Basic.rack[7].node[7].app 	throughput
field count 123755
field mean 61878
field stddev 35725.135619057
field sum 7657711890
field sqrsum 6.3178930920193e+014
field min 1
field max 123755
statistic Basic.rack[7].node[7].app 	"End-to-End Delay"
field count 123755
field mean 8.158408350212e-005
field stddev 0.00013231947018311
field sum 10.096438253805
field sqrsum 0.0029904484162965
field min 8.496e-007
field max 0.000419086722
statistic Basic.rack[7].node[7].app 	hops
field count 123755
field mean 4.243658842067
field stddev 0.82978861652769
field sum 525174
field sqrsum 2313870
field min 3
field max 5
statistic Basic.rack[7].node[8].app 	throughput
field count 124138
field mean 62069.5
field stddev 35835.698195608
field sum 7705183591
field sqrsum 6.3767328880757e+014
field min 1
field max 124138
statistic Basic.rack[7].node[8].app 	"End-to-End Delay"
field count 124138
field mean 8.1590748434998e-005
field stddev 0.00013219787650211
field sum 10.128512329224
field sqrsum 0.0029958456920428
field min 8.496e-007
field max 0.000419102654
statistic Basic.rack[7].node[8].app 	hops
field count 124138
field mean 4.2421659765745
field stddev 0.83042706640091
field sum 526614
field sqrsum 2319590
field min 3
field max 5
statistic Basic.rack[7].node[9].app 	throughput
field count 124256
field mean 62128.5
field stddev 35869.76186149
field sum 7719838896
field sqrsum 6.3949344118722e+014
field min 1
field max 124256
statistic Basic.rack[7].node[9].app 	"End-to-End Delay"
field count 124256
field mean 8.1551567222127e-005
field stddev 0.00013221691091658
field sum 10.133271536753
field sqrsum 0.0029985245393583
field min 8.496e-007
field max 0.000419252689
statistic Basic.rack[7].node[9].app 	hops
field count 124256
field mean 4.2450988282256
field stddev 0.82964719957744
field sum 527479
field sqrsum 2324727
field min 3
field max 5
statistic Basic.rack[7].eps.queue[0] 	dropsum
field count 33404
field mean 16702.5
field stddev 9643.0485324922
field sum 557930310
field sqrsum 12424922026930
field min 1
field max 33404
statistic Basic.rack[7].eps.queue[1] 	dropsum
field count 0
field mean nan
field stddev nan
field sum 0
field sqrsum 0
field min nan
field max nan
statistic Basic.rack[7].eps.queue[2] 	dropsum
field count 0
field mean nan
field stddev nan
field sum 0
field sqrsum 0
field min nan
field max nan
statistic Basic.rack[7].eps.queue[3] 	dropsum
field count 0
field mean nan
field stddev nan
field sum 0
field sqrsum 0
field min nan
field max nan
statistic Basic.rack[8].node[0].app 	throughput
field count 124174
field mean 62087.5
field stddev 35846.090500453
field sum 7709653225
field sqrsum 6.3822822292518e+014
field min 1
field max 124174
statistic Basic.rack[8].node[0].app 	"End-to-End Delay"
field count 124174
field mean 0.00010344874032337
field stddev 0.00015375812829505
field sum 12.845643880914
field sqrsum 0.0042645093584348
field min 8.992e-006
field max 0.000639051047
statistic Basic.rack[8].node[0].app 	hops
field count 124174
field mean 4.2454781194131
field stddev 1.2975289057811
field sum 527178
field sqrsum 2447178
field min 3
field max 6
statistic Basic.rack[8].node[1].app 	throughput
field count 124236
field mean 62118.5
field stddev 35863.988358798
field sum 7717353966
field sqrsum 6.3918469733131e+014
field min 1
field max 124236
statistic Basic.rack[8].node[1].app 	"End-to-End Delay"
field count 124236
field mean 0.00010397998804837
field stddev 0.00015423838260962
field sum 12.918057795178
field sqrsum 0.0042987053777223
field min 8.992e-006
field max 0.000639544841
statistic Basic.rack[8].node[1].app 	hops
field count 124236
field mean 4.2423693615377
field stddev 1.299299730451
field sum 527055
field sqrsum 2445693
field min 3
field max 6
statistic Basic.rack[8].node[2].app 	throughput
field count 124183
field mean 62092
field stddev 35848.688576664
field sum 7710770836
field sqrsum 6.383670067416e+014
field min 1
field max 124183
statistic Basic.rack[8].node[2].app 	"End-to-End Delay"
field count 124183
field mean 0.00010318660507724
field stddev 0.00015353252150915
field sum 12.814022178307
field sqrsum 0.004249482752722
field min 8.992e-006
field max 0.000645349803
statistic Basic.rack[8].node[2].app 	hops
field count 124183
field mean 4.2461125919007
field stddev 1.2956550636204
field sum 527295
field sqrsum 2447421
field min 3
field max 6
statistic Basic.rack[8].node[3].app 	throughput
field count 124264
field mean 62132.5
field stddev 35872.071262567
field sum 7720832980
field sqrsum 6.3961696656214e+014
field min 1
field max 124264
statistic Basic.rack[8].node[3].app 	"End-to-End Delay"
field count 124264
field mean 0.00010293659465038
field stddev 0.00015344593191526
field sum 12.791312997634
field sqrsum 0.0042425478067376
field min 8.992e-006
field max 0.000638087736
statistic Basic.rack[8].node[3].app 	hops
field count 124264
field mean 4.2438276572459
field stddev 1.29553775688
field sum 527355
field sqrsum 2446569
field min 3
field max 6
statistic Basic.rack[8].node[4].app 	throughput
field count 123651
field mean 61826
field stddev 35695.113405059
field sum 7644846726
field sqrsum 6.3019784329333e+014
field min 1
field max 123651
statistic Basic.rack[8].node[4].app 	"End-to-End Delay"
field count 123651
field mean 0.00010295057656156
field stddev 0.00015316676156254
field sum 12.729941742414
field sqrsum 0.0042113908711768
field min 8.992e-006
field max 0.000642040424
statistic Basic.rack[8].node[4].app 	hops
field count 123651
field mean 4.2419390057501
field stddev 1.2974333202182
field sum 524520
field sqrsum 2433126
field min 3
field max 6
statistic Basic.rack[8].node[5].app 	throughput
field count 124458
field mean 62229.5
field stddev 35928.074238679
field sum 7744959111
field sqrsum 6.4261732901093e+014
field min 1
field max 124458
statistic Basic.rack[8].node[5].app 	"End-to-End Delay"
field count 124458
field mean 0.00010271582168599
field stddev 0.00015315118974253
field sum 12.783805735395
field sqrsum 0.0042322737545319
field min 8.992e-006
field max 0.000647620747
statistic Basic.rack[8].node[5].app 	hops
field count 124458
field mean 4.240370245384
field stddev 1.2962142315946
field sum 527748
field sqrsum 2446956
field min 3
field max 6
statistic Basic.rack[8].node[6].app 	throughput
field count 124262
field mean 62131.5
field stddev 35871.493912298
field sum 7720584453
field sqrsum 6.3958608372728e+014
field min 1
field max 124262
statistic Basic.rack[8].node[6].app 	"End-to-End Delay"
field count 124262
field mean 0.00010275272404208
field stddev 0.00015317495792628
field sum 12.768258994917
field sqrsum 0.0042274555224104
field min 8.992e-006
field max 0.000636836973
statistic Basic.rack[8].node[6].app 	hops
field count 124262
field mean 4.2431073055319
field stddev 1.2956777079549
field sum 527257
field sqrsum 2445815
field min 3
field max 6
statistic Basic.rack[8].node[7].app 	throughput
field count 123943
field mean 61972
field stddev 35779.406544361
field sum 7680995596
field sqrsum 6.3467298510188e+014
field min 1
field max 123943
statistic Basic.rack[8].node[7].app 	"End-to-End Delay"
field count 123943
field mean 0.00010374763685261
field stddev 0.00015405523412871
field sum 12.858793354422
field sqrsum 0.0042755867885619
field min 8.992e-006
field max 0.000628372404
statistic Basic.rack[8].node[7].app 	hops
field count 123943
field mean 4.2473556392858
field stddev 1.2978091362323
field sum 526430
field sqrsum 2444692
field min 3
field max 6
statistic Basic.rack[8].node[8].app 	throughput
field count 124483
field mean 62242
field stddev 35935.291117044
field sum 7748070886
field sqrsum 6.4300465475825e+014
field min 1
field max 124483
statistic Basic.rack[8].node[8].app 	"End-to-End Delay"
field count 124483
field mean 0.00010270187665282
field stddev 0.00015339632772963
field sum 12.784637711374
field sqrsum 0.0042421216909204
field min 8.992e-006
field max 0.00064857631
statistic Basic.rack[8].node[8].app 	hops
field count 124483
field mean 4.2377674059912
field stddev 1.2960142608877
field sum 527530
field sqrsum 2444636
field min 3
field max 6
statistic Basic.rack[8].node[9].app 	throughput
field count 124210
field mean 62105.5
field stddev 35856.482805298
field sum 7714124155
field sqrsum 6.3878347890308e+014
field min 1
field max 124210
statistic Basic.rack[8].node[9].app 	"End-to-End Delay"
field count 124210
field mean 0.00010235197759289
field stddev 0.00015306339571
field sum 12.713139136813
field sqrsum 0.0042112334534939
field min 8.992e-006
field max 0.00065511983
statistic Basic.rack[8].node[9].app 	hops
field count 124210
field mean 4.2400450849368
field stddev 1.2948856575952
field sum 526656
field sqrsum 2441310
field min 3
field max 6
statistic Basic.rack[8].eps.queue[0] 	dropsum
field count 0
field mean nan
field stddev nan
field sum 0
field sqrsum 0
field min nan
field max nan
statistic Basic.rack[8].eps.queue[1] 	dropsum
field count 0
field mean nan
field stddev nan
field sum 0
field sqrsum 0
field min nan
field max nan
statistic Basic.rack[8].eps.queue[2] 	dropsum
field count 0
field mean nan
field stddev nan
field sum 0
field sqrsum 0
field min nan
field max nan
statistic Basic.rack[8].eps.queue[3] 	dropsum
field count 0
field mean nan
field stddev nan
field sum 0
field sqrsum 0
field min nan
field max nan
statistic Basic.rack[9].node[0].app 	throughput
field count 125039
field mean 62520
field stddev 36095.79449188
field sum 7817438280
field sqrsum 6.5165904920804e+014
field min 1
field max 125039
statistic Basic.rack[9].node[0].app 	"End-to-End Delay"
field count 125039
field mean 9.9546957468433e-005
field stddev 0.00015331264467865
field sum 12.447252014895
field sqrsum 0.0041780751253675
field min 8.992e-006
field max 0.000641666816
statistic Basic.rack[9].node[0].app 	hops
field count 125039
field mean 4.2408528539096
field stddev 1.2959217808115
field sum 530272
field sqrsum 2458796
field min 3
field max 6
statistic Basic.rack[9].node[1].app 	throughput
field count 124141
field mean 62071
field stddev 35836.564221011
field sum 7705556011
field sqrsum 6.3771952102637e+014
field min 1
field max 124141
statistic Basic.rack[9].node[1].app 	"End-to-End Delay"
field count 124141
field mean 0.00010025593271883
field stddev 0.00015387078012626
field sum 12.445871743648
field sqrsum 0.0041869380556415
field min 8.992e-006
field max 0.000632177169
statistic Basic.rack[9].node[1].app 	hops
field count 124141
field mean 4.2426112243336
field stddev 1.2972782451658
field sum 526682
field sqrsum 2443426
field min 3
field max 6
statistic Basic.rack[9].node[2].app 	throughput
field count 123894
field mean 61947.5
field stddev 35765.261462766
field sum 7674923565
field sqrsum 6.339205450826e+014
field min 1
field max 123894
statistic Basic.rack[9].node[2].app 	"End-to-End Delay"
field count 123894
field mean 9.955522932124e-005
field stddev 0.00015329619497725
field sum 12.334295581526
field sqrsum 0.0041393948556499
field min 8.992e-006
field max 0.000629781908
statistic Basic.rack[9].node[2].app 	hops
field count 123894
field mean 4.2409963355772
field stddev 1.2955068555355
field sum 525434
field sqrsum 2436298
field min 3
field max 6
statistic Basic.rack[9].node[3].app 	throughput
field count 124298
field mean 62149.5
field stddev 35881.886217143
field sum 7725058551
field sqrsum 6.4014212686765e+014
field min 1
field max 124298
statistic Basic.rack[9].node[3].app 	"End-to-End Delay"
field count 124298
field mean 9.9672846260356e-005
field stddev 0.00015334131955593
field sum 12.38913544447
field sqrsum 0.0041575253949705
field min 8.992e-006
field max 0.000632579454
statistic Basic.rack[9].node[3].app 	hops
field count 124298
field mean 4.240631385863
field stddev 1.2959176990373
field sum 527102
field sqrsum 2443990
field min 3
field max 6
statistic Basic.rack[9].node[4].app 	throughput
field count 124285
field mean 62143
field stddev 35878.133440393
field sum 7723442755
field sqrsum 6.3994129635104e+014
field min 1
field max 124285
statistic Basic.rack[9].node[4].app 	"End-to-End Delay"
field count 124285
field mean 0.00010033374944882
field stddev 0.00015392505569028
field sum 12.469980050247
field sqrsum 0.0041958110674476
field min 8.992e-006
field max 0.000640698424
statistic Basic.rack[9].node[4].app 	hops
field count 124285
field mean 4.2430381783803
field stddev 1.297090338317
field sum 527346
field sqrsum 2446650
field min 3
field max 6
statistic Basic.rack[9].node[5].app 	throughput
field count 124817
field mean 62409
field stddev 36031.708611999
field sum 7789704153
field sqrsum 6.4819426541138e+014
field min 1
field max 124817
statistic Basic.rack[9].node[5].app 	"End-to-End Delay"
field count 124817
field mean 0.00010011930566428
field stddev 0.00015364265440158
field sum 12.496591375099
field sqrsum 0.0041975646920842
field min 8.992e-006
field max 0.000616796536
statistic Basic.rack[9].node[5].app 	hops
field count 124817
field mean 4.2433402501262
field stddev 1.2967881922726
field sum 529641
field sqrsum 2457345
field min 3
field max 6
statistic Basic.rack[9].node[6].app 	throughput
field count 124533
field mean 62267
field stddev 35949.724873773
field sum 7754296311
field sqrsum 6.4377977309728e+014
field min 1
field max 124533
statistic Basic.rack[9].node[6].app 	"End-to-End Delay"
field count 124533
field mean 0.00010094023980725
field stddev 0.0001543953072205
field sum 12.570390883917
field sqrsum 0.0042374409894601
field min 8.992e-006
field max 0.000629148673
statistic Basic.rack[9].node[6].app 	hops
field count 124533
field mean 4.2484080524841
field stddev 1.2977045155719
field sum 529067
field sqrsum 2457409
field min 3
field max 6
statistic Basic.rack[9].node[7].app 	throughput
field count 124738
field mean 62369.5
field stddev 36008.903276366
field sum 7779846691
field sqrsum 6.4696427097687e+014
field min 1
field max 124738
statistic Basic.rack[9].node[7].app 	"End-to-End Delay"
field count 124738
field mean 9.9875874588655e-005
field stddev 0.00015357413044625
field sum 12.45831684444
field sqrsum 0.0041862091249696
field min 8.992e-006
field max 0.000646083237
statistic Basic.rack[9].node[7].app 	hops
field count 124738
field mean 4.2404960797832
field stddev 1.2964888906527
field sum 528951
field sqrsum 2452683
field min 3
field max 6
statistic Basic.rack[9].node[8].app 	throughput
field count 124810
field mean 62405.5
field stddev 36029.687886057
field sum 7788830455
field sqrsum 6.4808521566918e+014
field min 1
field max 124810
statistic Basic.rack[9].node[8].app 	"End-to-End Delay"
field count 124810
field mean 0.0001007876185005
field stddev 0.0001543639237678
field sum 12.579302665047
field sqrsum 0.0042418143879275
field min 8.992e-006
field max 0.000645376006
statistic Basic.rack[9].node[8].app 	hops
field count 124810
field mean 4.2478166813557
field stddev 1.2976985108656
field sum 530170
field sqrsum 2462246
field min 3
field max 6
statistic Basic.rack[9].node[9].app 	throughput
field count 123962
field mean 61981.5
field stddev 35784.891371918
field sum 7683350703
field sqrsum 6.3496490768042e+014
field min 1
field max 123962
statistic Basic.rack[9].node[9].app 	"End-to-End Delay"
field count 123962
field mean 0.00010009566201741
field stddev 0.00015379941440507
field sum 12.408058455002
field sqrsum 0.0041741985333154
field min 8.992e-006
field max 0.000632315323
statistic Basic.rack[9].node[9].app 	hops
field count 123962
field mean 4.2420903180007
field stddev 1.2965102856375
field sum 525858
field sqrsum 2439108
field min 3
field max 6
statistic Basic.rack[9].eps.queue[0] 	dropsum
field count 0
field mean nan
field stddev nan
field sum 0
field sqrsum 0
field min nan
field max nan
statistic Basic.rack[9].eps.queue[1] 	dropsum
field count 0
field mean nan
field stddev nan
field sum 0
field sqrsum 0
field min nan
field max nan
statistic Basic.rack[9].eps.queue[2] 	dropsum
field count 0
field mean nan
field stddev nan
field sum 0
field sqrsum 0
field min nan
field max nan
statistic Basic.rack[9].eps.queue[3] 	dropsum
field count 0
field mean nan
field stddev nan
field sum 0
field sqrsum 0
field min nan
field max nan
statistic Basic.rack[10].node[0].app 	throughput
field count 124118
field mean 62059.5
field stddev 35829.924692916
field sum 7702701021
field sqrsum 6.3736513111666e+014
field min 1
field max 124118
statistic Basic.rack[10].node[0].app 	"End-to-End Delay"
field count 124118
field mean 7.8983886172467e-005
field stddev 0.00013361913608864
field sum 9.8033219839542
field sqrsum 0.0029902985119009
field min 8.496e-007
field max 0.000419114307
statistic Basic.rack[10].node[0].app 	hops
field count 124118
field mean 4.2470391079457
field stddev 0.82895624307249
field sum 527134
field sqrsum 2324048
field min 3
field max 5
statistic Basic.rack[10].node[1].app 	throughput
field count 123840
field mean 61920.5
field stddev 35749.673005498
field sum 7668234720
field sqrsum 6.3309201456144e+014
field min 1
field max 123840
statistic Basic.rack[10].node[1].app 	"End-to-End Delay"
field count 123840
field mean 7.8254567217285e-005
field stddev 0.00013296520973538
field sum 9.6910456041886
field sqrsum 0.0029478107683686
field min 8.496e-007
field max 0.000419041146
statistic Basic.rack[10].node[1].app 	hops
field count 123840
field mean 4.2461724806202
field stddev 0.82926270056837
field sum 525846
field sqrsum 2317994
field min 3
field max 5
statistic Basic.rack[10].node[2].app 	throughput
field count 124078
field mean 62039.5
field stddev 35818.377687532
field sum 7697737081
field sqrsum 6.3674911360324e+014
field min 1
field max 124078
statistic Basic.rack[10].node[2].app 	"End-to-End Delay"
field count 124078
field mean 7.7957055665053e-005
field stddev 0.00013280700007826
field sum 9.6727555528084
field sqrsum 0.002942492355362
field min 8.496e-007
field max 0.000419031426
statistic Basic.rack[10].node[2].app 	hops
field count 124078
field mean 4.2424442689276
field stddev 0.82841642764414
field sum 526394
field sqrsum 2318348
field min 3
field max 5
statistic Basic.rack[10].node[3].app 	throughput
field count 124044
field mean 62022.5
field stddev 35808.562732955
field sum 7693518990
field sqrsum 6.3622581090337e+014
field min 1
field max 124044
statistic Basic.rack[10].node[3].app 	"End-to-End Delay"
field count 124044
field mean 7.797186392973e-005
field stddev 0.00013287915795099
field sum 9.6719418892994
field sqrsum 0.002944350538968
field min 8.496e-007
field max 0.000419039657
statistic Basic.rack[10].node[3].app 	hops
field count 124044
field mean 4.241382090226
field stddev 0.83091889053207
field sum 526118
field sqrsum 2317110
field min 3
field max 5
statistic Basic.rack[10].node[4].app 	throughput
field count 124032
field mean 62016.5
field stddev 35805.09863134
field sum 7692030528
field sqrsum 6.3604118430944e+014
field min 1
field max 124032
statistic Basic.rack[10].node[4].app 	"End-to-End Delay"
field count 124032
field mean 7.7419263756761e-005
field stddev 0.00013240698501958
field sum 9.6024661222786
field sqrsum 0.0029178789379013
field min 8.496e-007
field max 0.000419199092
statistic Basic.rack[10].node[4].app 	hops
field count 124032
field mean 4.242074625903
field stddev 0.83045522895363
field sum 526153
field sqrsum 2317519
field min 3
field max 5
statistic Basic.rack[10].node[5].app 	throughput
field count 124310
field mean 62155.5
field stddev 35885.350318758
field sum 7726550205
field sqrsum 6.4032754617244e+014
field min 1
field max 124310
statistic Basic.rack[10].node[5].app 	"End-to-End Delay"
field count 124310
field mean 7.8911641907119e-005
field stddev 0.00013366192801118
field sum 9.809506205474
field sqrsum 0.0029949280478296
field min 8.496e-007
field max 0.000419040788
statistic Basic.rack[10].node[5].app 	hops
field count 124310
field mean 4.2487732282198
field stddev 0.82916226333829
field sum 528165
field sqrsum 2329517
field min 3
field max 5
statistic Basic.rack[10].node[6].app 	throughput
field count 124586
field mean 62293.5
field stddev 35965.024655907
field sum 7760897991
field sqrsum 6.4460207837048e+014
field min 1
field max 124586
statistic Basic.rack[10].node[6].app 	"End-to-End Delay"
field count 124586
field mean 7.8391134195768e-005
field stddev 0.000133288336452
field sum 9.766437844914
field sqrsum 0.0029789519200199
field min 8.496e-007
field max 0.000419031337
statistic Basic.rack[10].node[6].app 	hops
field count 124586
field mean 4.2453485945451
field stddev 0.82898794311918
field sum 528911
field sqrsum 2331029
field min 3
field max 5
statistic Basic.rack[10].node[7].app 	throughput
field count 123541
field mean 61771
field stddev 35663.359140253
field sum 7631251111
field sqrsum 6.2851747275307e+014
field min 1
field max 123541
statistic Basic.rack[10].node[7].app 	"End-to-End Delay"
field count 123541
field mean 7.7911330699693e-005
field stddev 0.00013275082150018
field sum 9.6252437059707
field sqrsum 0.0029270338618737
field min 8.496e-007
field max 0.000419041205
statistic Basic.rack[10].node[7].app 	hops
field count 123541
field mean 4.2437895111744
field stddev 0.82947730577569
field sum 524282
field sqrsum 2309942
field min 3
field max 5
statistic Basic.rack[10].node[8].app 	throughput
field count 123679
field mean 61840
field stddev 35703.196308827
field sum 7648309360
field sqrsum 6.3062605166008e+014
field min 1
field max 123679
statistic Basic.rack[10].node[8].app 	"End-to-End Delay"
field count 123679
field mean 7.8551032645739e-005
field stddev 0.00013338997772015
field sum 9.7151131665923
field sqrsum 0.0029637207455304
field min 8.496e-007
field max 0.000419040795
statistic Basic.rack[10].node[8].app 	hops
field count 123679
field mean 4.2451264968184
field stddev 0.82950169418583
field sum 525033
field sqrsum 2313931
field min 3
field max 5
statistic Basic.rack[10].node[9].app 	throughput
field count 123838
field mean 61919.5
field stddev 35749.095655228
field sum 7667987041
field sqrsum 6.3306134211792e+014
field min 1
field max 123838
statistic Basic.rack[10].node[9].app 	"End-to-End Delay"
field count 123838
field mean 7.8441012511084e-005
field stddev 0.0001334047028953
field sum 9.7139781073476
field sqrsum 0.0029658784270142
field min 8.496e-007
field max 0.000419117261
statistic Basic.rack[10].node[9].app 	hops
field count 123838
field mean 4.2457807781133
field stddev 0.82946892017724
field sum 525789
field sqrsum 2317587
field min 3
field max 5
statistic Basic.rack[10].eps.queue[0] 	dropsum
field count 0
field mean nan
field stddev nan
field sum 0
field sqrsum 0
field min nan
field max nan
statistic Basic.rack[10].eps.queue[1] 	dropsum
field count 0
field mean nan
field stddev nan
field sum 0
field sqrsum 0
field min nan
field max nan
statistic Basic.rack[10].eps.queue[2] 	dropsum
field count 0
field mean nan
field stddev nan
field sum 0
field sqrsum 0
field min nan
field max nan
statistic Basic.rack[10].eps.queue[3] 	dropsum
field count 0
field mean nan
field stddev nan
field sum 0
field sqrsum 0
field min nan
field max nan
statistic Basic.rack[11].node[0].app 	throughput
field count 124093
field mean 62047
field stddev 35822.707814551
field sum 7699598371
field sqrsum 6.3698007363446e+014
field min 1
field max 124093
statistic Basic.rack[11].node[0].app 	"End-to-End Delay"
field count 124093
field mean 7.7617210692439e-005
field stddev 0.00013207141183497
field sum 9.6317525264568
field sqrsum 0.0029121088782893
field min 8.496e-007
field max 0.000419039463
statistic Basic.rack[11].node[0].app 	hops
field count 124093
field mean 4.248329881621
field stddev 0.82897256842139
field sum 527188
field sqrsum 2324944
field min 3
field max 5
statistic Basic.rack[11].node[1].app 	throughput
field count 123592
field mean 61796.5
field stddev 35678.081572117
field sum 7637553028
field sqrsum 6.2929618174206e+014
field min 1
field max 123592
statistic Basic.rack[11].node[1].app 	"End-to-End Delay"
field count 123592
field mean 7.7385906813361e-005
field stddev 0.00013198121267713
field sum 9.5642789948769
field sqrsum 0.0028929770374362
field min 8.496e-007
field max 0.000419040826
statistic Basic.rack[11].node[1].app 	hops
field count 123592
field mean 4.248616415302
field stddev 0.82831142964325
field sum 525095
field sqrsum 2315723
field min 3
field max 5
statistic Basic.rack[11].node[2].app 	throughput
field count 123834
field mean 61917.5
field stddev 35747.94095469
field sum 7667491695
field sqrsum 6.3300000020298e+014
field min 1
field max 123834
statistic Basic.rack[11].node[2].app 	"End-to-End Delay"
[...]
field stddev 36070.968430304
field sum 7806688581
field sqrsum 6.5031537440399e+014
field min 1
field max 124953
statistic Basic.rack[13].node[2].app 	"End-to-End Delay"
field count 124953
field mean 0.00010265631517459
field stddev 0.00015281688828497
field sum 12.82721455001
field sqrsum 0.0042347988037309
field min 8.992e-006
field max 0.000644119306
statistic Basic.rack[13].node[2].app 	hops
field count 124953
field mean 4.244411898874
field stddev 1.2985795422141
field sum 530352
field sqrsum 2461740
field min 3
field max 6
statistic Basic.rack[13].node[3].app 	throughput
field count 124020
field mean 62010.5
field stddev 35801.634529725
field sum 7690542210
field sqrsum 6.3585659343687e+014
field min 1
field max 124020
statistic Basic.rack[13].node[3].app 	"End-to-End Delay"
field count 124020
field mean 0.00010181430851722
field stddev 0.00015214751570884
field sum 12.627010542305
field sqrsum 0.0041565096259786
field min 8.992e-006
field max 0.000670468845
statistic Basic.rack[13].node[3].app 	hops
field count 124020
field mean 4.2435494275117
field stddev 1.2964674517044
field sum 526285
field sqrsum 2441771
field min 3
field max 6
statistic Basic.rack[13].node[4].app 	throughput
field count 124557
field mean 62279
field stddev 35956.653077004
field sum 7757285403
field sqrsum 6.4415205105612e+014
field min 1
field max 124557
statistic Basic.rack[13].node[4].app 	"End-to-End Delay"
field count 124557
field mean 0.00010185650787829
field stddev 0.00015228113232096
field sum 12.686941051796
field sqrsum 0.0041806442616049
field min 8.992e-006
field max 0.000638691605
statistic Basic.rack[13].node[4].app 	hops
field count 124557
field mean 4.2422184220879
field stddev 1.296545092653
field sum 528398
field sqrsum 2450962
field min 3
field max 6
statistic Basic.rack[13].node[5].app 	throughput
field count 124572
field mean 62286.5
field stddev 35960.983204023
field sum 7759153878
field sqrsum 6.4438479764477e+014
field min 1
field max 124572
statistic Basic.rack[13].node[5].app 	"End-to-End Delay"
field count 124572
field mean 0.00010166299183551
field stddev 0.00015232426005922
field sum 12.664362218933
field sqrsum 0.004177878028382
field min 8.992e-006
field max 0.000649858582
statistic Basic.rack[13].node[5].app 	hops
field count 124572
field mean 4.2396686253733
field stddev 1.2959535706431
field sum 528144
field sqrsum 2448372
field min 3
field max 6
statistic Basic.rack[13].node[6].app 	throughput
field count 124020
field mean 62010.5
field stddev 35801.634529725
field sum 7690542210
field sqrsum 6.3585659343687e+014
field min 1
field max 124020
statistic Basic.rack[13].node[6].app 	"End-to-End Delay"
field count 124020
field mean 0.00010185709476028
field stddev 0.00015228212578915
field sum 12.63231689217
field sqrsum 0.0041626725893215
field min 8.992e-006
field max 0.000649012034
statistic Basic.rack[13].node[6].app 	hops
field count 124020
field mean 4.2413723592969
field stddev 1.2964268036569
field sum 526015
field sqrsum 2439467
field min 3
field max 6
statistic Basic.rack[13].node[7].app 	throughput
field count 124922
field mean 62461.5
field stddev 36062.019501132
field sum 7802815503
field sqrsum 6.4983147978234e+014
field min 1
field max 124922
statistic Basic.rack[13].node[7].app 	"End-to-End Delay"
field count 124922
field mean 0.00010212682319589
field stddev 0.00015265222170547
field sum 12.757887007276
field sqrsum 0.0042139191563345
field min 8.992e-006
field max 0.00068475858
statistic Basic.rack[13].node[7].app 	hops
field count 124922
field mean 4.2453050703639
field stddev 1.2960295278556
field sum 530332
field sqrsum 2461250
field min 3
field max 6
statistic Basic.rack[13].node[8].app 	throughput
field count 124374
field mean 62187.5
field stddev 35903.825527372
field sum 7734508125
field sqrsum 6.4131705386188e+014
field min 1
field max 124374
statistic Basic.rack[13].node[8].app 	"End-to-End Delay"
field count 124374
field mean 0.00010199405737513
field stddev 0.00015229500846704
field sum 12.685408891974
field sqrsum 0.0041785150293103
field min 8.992e-006
field max 0.000663301561
statistic Basic.rack[13].node[8].app 	hops
field count 124374
field mean 4.2458391625259
field stddev 1.296422857968
field sum 528072
field sqrsum 2451144
field min 3
field max 6
statistic Basic.rack[13].node[9].app 	throughput
field count 124652
field mean 62326.5
field stddev 35984.07721479
field sum 7769122878
field sqrsum 6.4562705969993e+014
field min 1
field max 124652
statistic Basic.rack[13].node[9].app 	"End-to-End Delay"
field count 124652
field mean 0.00010193178953756
field stddev 0.00015217802272693
field sum 12.706001429435
field sqrsum 0.0041818320941441
field min 8.992e-006
field max 0.000694692423
statistic Basic.rack[13].node[9].app 	hops
field count 124652
field mean 4.2427397875686
field stddev 1.2967777581965
field sum 528866
field sqrsum 2453458
field min 3
field max 6
statistic Basic.rack[13].eps.queue[0] 	dropsum
field count 0
field mean nan
field stddev nan
field sum 0
field sqrsum 0
field min nan
field max nan
statistic Basic.rack[13].eps.queue[1] 	dropsum
field count 0
field mean nan
field stddev nan
field sum 0
field sqrsum 0
field min nan
field max nan
statistic Basic.rack[13].eps.queue[2] 	dropsum
field count 0
field mean nan
field stddev nan
field sum 0
field sqrsum 0
field min nan
field max nan
statistic Basic.rack[13].eps.queue[3] 	dropsum
field count 0
field mean nan
field stddev nan
field sum 0
field sqrsum 0
field min nan
field max nan
statistic Basic.rack[14].node[0].app 	throughput
field count 123896
field mean 61948.5
field stddev 35765.838813035
field sum 7675171356
field sqrsum 6.3395124527244e+014
field min 1
field max 123896
statistic Basic.rack[14].node[0].app 	"End-to-End Delay"
field count 123896
field mean 7.9447903681656e-005
field stddev 0.00013021706314769
field sum 9.8432774745425
field sqrsum 0.0028828512882546
field min 8.496e-007
field max 0.000419036474
statistic Basic.rack[14].node[0].app 	hops
field count 123896
field mean 4.2417188609802
field stddev 0.83096089749598
field sum 525532
field sqrsum 2314708
field min 3
field max 5
statistic Basic.rack[14].node[1].app 	throughput
field count 124222
field mean 62111.5
field stddev 35859.946906914
field sum 7715614753
field sqrsum 6.389686357697e+014
field min 1
field max 124222
statistic Basic.rack[14].node[1].app 	"End-to-End Delay"
field count 124222
field mean 7.9666590651272e-005
field stddev 0.000130433374021
field sum 9.8963432238823
field sqrsum 0.0029017630349939
field min 8.496e-007
field max 0.000419201585
statistic Basic.rack[14].node[1].app 	hops
field count 124222
field mean 4.243555891871
field stddev 0.8295943352668
field sum 527143
field sqrsum 2322453
field min 3
field max 5
statistic Basic.rack[14].node[2].app 	throughput
field count 123670
field mean 61835.5
field stddev 35700.598232616
field sum 7647196285
field sqrsum 6.304883921094e+014
field min 1
field max 123670
statistic Basic.rack[14].node[2].app 	"End-to-End Delay"
field count 123670
field mean 7.9858174109441e-005
field stddev 0.0001306385869427
field sum 9.8760603921145
field sqrsum 0.0028992737679366
field min 8.496e-007
field max 0.000419041556
statistic Basic.rack[14].node[2].app 	hops
field count 123670
field mean 4.2453464866176
field stddev 0.82786428890661
field sum 525022
field sqrsum 2313658
field min 3
field max 5
statistic Basic.rack[14].node[3].app 	throughput
field count 123629
field mean 61815
field stddev 35688.762552098
field sum 7642126635
field sqrsum 6.2986152988116e+014
field min 1
field max 123629
statistic Basic.rack[14].node[3].app 	"End-to-End Delay"
field count 123629
field mean 8.0675238995352e-005
field stddev 0.00013101086907361
field sum 9.9737991217563
field sqrsum 0.0029265708055643
field min 8.496e-007
field max 0.000419158595
statistic Basic.rack[14].node[3].app 	hops
field count 123629
field mean 4.2472397253072
field stddev 0.8290714212057
field sum 525082
field sqrsum 2315126
field min 3
field max 5
statistic Basic.rack[14].node[4].app 	throughput
field count 123260
field mean 61630.5
field stddev 35582.241427431
field sum 7596575430
field sqrsum 6.2423845719301e+014
field min 1
field max 123260
statistic Basic.rack[14].node[4].app 	"End-to-End Delay"
field count 123260
field mean 7.9474273862677e-005
field stddev 0.000130281215011
field sum 9.7959989963135
field sqrsum 0.0028706289476159
field min 8.496e-007
field max 0.000419099145
statistic Basic.rack[14].node[4].app 	hops
field count 123260
field mean 4.2407837092325
field stddev 0.82931380242367
field sum 522719
field sqrsum 2301511
field min 3
field max 5
statistic Basic.rack[14].node[5].app 	throughput
field count 123571
field mean 61786
field stddev 35672.019394291
field sum 7634957806
field sqrsum 6.2897545901609e+014
field min 1
field max 123571
statistic Basic.rack[14].node[5].app 	"End-to-End Delay"
field count 123571
field mean 7.9919085475097e-005
field stddev 0.00013055713871683
field sum 9.8756813112432
field sqrsum 0.0028955266395268
field min 8.496e-007
field max 0.000419040019
statistic Basic.rack[14].node[5].app 	hops
field count 123571
field mean 4.2426863908199
field stddev 0.82945237501553
field sum 524273
field sqrsum 2309341
field min 3
field max 5
statistic Basic.rack[14].node[6].app 	throughput
field count 124426
field mean 62213.5
field stddev 35918.836634371
field sum 7740976951
field sqrsum 6.421217790624e+014
field min 1
field max 124426
statistic Basic.rack[14].node[6].app 	"End-to-End Delay"
field count 124426
field mean 7.931422563376e-005
field stddev 0.00013015575295846
field sum 9.8687518387063
field sqrsum 0.0028905566145656
field min 8.496e-007
field max 0.000419172583
statistic Basic.rack[14].node[6].app 	hops
field count 124426
field mean 4.2440968929323
field stddev 0.82974774928838
field sum 528076
field sqrsum 2326870
field min 3
field max 5
statistic Basic.rack[14].node[7].app 	throughput
field count 123881
field mean 61941
field stddev 35761.508686016
field sum 7673313021
field sqrsum 6.3372101800734e+014
field min 1
field max 123881
statistic Basic.rack[14].node[7].app 	"End-to-End Delay"
field count 123881
field mean 7.9986219939025e-005
field stddev 0.00013065984823976
field sum 9.9087729122663
field sqrsum 0.0029074441467858
field min 8.496e-007
field max 0.000419049715
statistic Basic.rack[14].node[7].app 	hops
field count 123881
field mean 4.2448155891541
field stddev 0.83016678288658
field sum 525852
field sqrsum 2317520
field min 3
field max 5
statistic Basic.rack[14].node[8].app 	throughput
field count 123703
field mean 61852
field stddev 35710.124512058
field sum 7651277956
field sqrsum 6.3099324175336e+014
field min 1
field max 123703
statistic Basic.rack[14].node[8].app 	"End-to-End Delay"
field count 123703
field mean 7.9514313330303e-005
field stddev 0.0001302828286498
field sum 9.8361591018985
field sqrsum 0.0028817856140767
field min 8.496e-007
field max 0.000419079617
statistic Basic.rack[14].node[8].app 	hops
field count 123703
field mean 4.245159777855
field stddev 0.82815584264026
field sum 525139
field sqrsum 2314139
field min 3
field max 5
statistic Basic.rack[14].node[9].app 	throughput
field count 124383
field mean 62192
field stddev 35906.423603584
field sum 7735627536
field sqrsum 6.414562850827e+014
field min 1
field max 124383
statistic Basic.rack[14].node[9].app 	"End-to-End Delay"
field count 124383
field mean 7.9688502261695e-005
field stddev 0.00013040567590094
field sum 9.9118949768164
field sqrsum 0.0029050596179655
field min 8.496e-007
field max 0.000419040341
statistic Basic.rack[14].node[9].app 	hops
field count 124383
field mean 4.2443983502569
field stddev 0.82947082918128
field sum 527931
field sqrsum 2326327
field min 3
field max 5
statistic Basic.rack[14].eps.queue[0] 	dropsum
field count 0
field mean nan
field stddev nan
field sum 0
field sqrsum 0
field min nan
field max nan
statistic Basic.rack[14].eps.queue[1] 	dropsum
field count 31319
field mean 15660
field stddev 9041.1608767901
field sum 490455540
field sqrsum 10240548190020
field min 1
field max 31319
statistic Basic.rack[14].eps.queue[2] 	dropsum
field count 0
field mean nan
field stddev nan
field sum 0
field sqrsum 0
field min nan
field max nan
statistic Basic.rack[14].eps.queue[3] 	dropsum
field count 0
field mean nan
field stddev nan
field sum 0
field sqrsum 0
field min nan
field max nan
statistic Basic.rack[15].node[0].app 	throughput
field count 123366
field mean 61683.5
field stddev 35612.840991698
field sum 7609646661
field sqrsum 6.2585031653617e+014
field min 1
field max 123366
statistic Basic.rack[15].node[0].app 	"End-to-End Delay"
field count 123366
field mean 8.0109790292774e-005
field stddev 0.00013046324286083
field sum 9.8828243892584
field sqrsum 0.002891464431143
field min 8.496e-007
field max 0.000419040572
statistic Basic.rack[15].node[0].app 	hops
field count 123366
field mean 4.2411604493945
field stddev 0.83071305810069
field sum 523215
field sqrsum 2304171
field min 3
field max 5
statistic Basic.rack[15].node[1].app 	throughput
field count 124127
field mean 62064
field stddev 35832.522769127
field sum 7703818128
field sqrsum 6.3750378978888e+014
field min 1
field max 124127
statistic Basic.rack[15].node[1].app 	"End-to-End Delay"
field count 124127
field mean 7.9644984716664e-005
field stddev 0.00013008757578158
field sum 9.8860930179253
field sqrsum 0.0028879343914876
field min 8.496e-007
field max 0.000419041548
statistic Basic.rack[15].node[1].app 	hops
field count 124127
field mean 4.2403586649158
field stddev 0.83065733923899
field sum 526343
field sqrsum 2317529
field min 3
field max 5
statistic Basic.rack[15].node[2].app 	throughput
field count 123602
field mean 61801.5
field stddev 35680.968323463
field sum 7638789003
field sqrsum 6.294489451622e+014
field min 1
field max 123602
statistic Basic.rack[15].node[2].app 	"End-to-End Delay"
field count 123602
field mean 8.0355841417551e-005
field stddev 0.00013071208553332
field sum 9.9321427108921
field sqrsum 0.0029099090242946
field min 8.496e-007
field max 0.000419036452
statistic Basic.rack[15].node[2].app 	hops
field count 123602
field mean 4.2451254834064
field stddev 0.82870479005644
field sum 524706
field sqrsum 2312326
field min 3
field max 5
statistic Basic.rack[15].node[3].app 	throughput
field count 123677
field mean 61839
field stddev 35702.618958558
field sum 7648062003
field sqrsum 6.3059545891736e+014
field min 1
field max 123677
statistic Basic.rack[15].node[3].app 	"End-to-End Delay"
field count 123677
field mean 8.004169057813e-005
field stddev 0.0001305751490001
field sum 9.8993161656313
field sqrsum 0.0029010176662481
field min 8.496e-007
field max 0.000419063595
statistic Basic.rack[15].node[3].app 	hops
field count 123677
field mean 4.2437720837342
field stddev 0.83071628858232
field sum 524857
field sqrsum 2312721
field min 3
field max 5
statistic Basic.rack[15].node[4].app 	throughput
field count 124434
field mean 62217.5
field stddev 35921.146035448
field sum 7741972395
field sqrsum 6.4224564265708e+014
field min 1
field max 124434
statistic Basic.rack[15].node[4].app 	"End-to-End Delay"
field count 124434
field mean 7.9919310741783e-005
field stddev 0.00013053510956426
field sum 9.944679512843
field sqrsum 0.0029150374376256
field min 8.496e-007
field max 0.000419033233
statistic Basic.rack[15].node[4].app 	hops
field count 124434
field mean 4.2413006091583
field stddev 0.83036211432365
field sum 527762
field sqrsum 2324194
field min 3
field max 5
statistic Basic.rack[15].node[5].app 	throughput
field count 123828
field mean 61914.5
field stddev 35746.208903882
field sum 7666748706
field sqrsum 6.3290799476061e+014
field min 1
field max 123828
statistic Basic.rack[15].node[5].app 	"End-to-End Delay"
field count 123828
field mean 7.9848314302002e-005
field stddev 0.00013055564570374
field sum 9.8874570633883
field sqrsum 0.0029001003344038
field min 8.496e-007
field max 0.000419040656
statistic Basic.rack[15].node[5].app 	hops
field count 123828
field mean 4.2412055431728
field stddev 0.83064801124722
field sum 525180
field sqrsum 2312834
field min 3
field max 5
statistic Basic.rack[15].node[6].app 	throughput
field count 124591
field mean 62296
field stddev 35966.46803158
field sum 7761520936
field sqrsum 6.446796904651e+014
field min 1
field max 124591
statistic Basic.rack[15].node[6].app 	"End-to-End Delay"
field count 124591
field mean 7.9310786330306e-005
field stddev 0.00013008498729906
field sum 9.8814101796792
field sqrsum 0.0028920273388697
field min 8.496e-007
field max 0.000419038201
statistic Basic.rack[15].node[6].app 	hops
field count 124591
field mean 4.2405711487989
field stddev 0.82876278166357
field sum 528337
field sqrsum 2326025
field min 3
field max 5
statistic Basic.rack[15].node[7].app 	throughput
field count 123843
field mean 61922
field stddev 35750.539030901
field sum 7668606246
field sqrsum 6.3313802508433e+014
field min 1
field max 123843
statistic Basic.rack[15].node[7].app 	"End-to-End Delay"
field count 123843
field mean 8.0000485381816e-005
field stddev 0.00013057171111158
field sum 9.9075001111403
field sqrsum 0.0029039835763593
field min 8.496e-007
field max 0.000419037554
statistic Basic.rack[15].node[7].app 	hops
field count 123843
field mean 4.2440913091576
field stddev 0.82961859680309
field sum 525601
field sqrsum 2315935
field min 3
field max 5
statistic Basic.rack[15].node[8].app 	throughput
field count 124116
field mean 62058.5
field stddev 35829.347342646
field sum 7702452786
field sqrsum 6.3733432080905e+014
field min 1
field max 124116
statistic Basic.rack[15].node[8].app 	"End-to-End Delay"
field count 124116
field mean 7.9799705899918e-005
field stddev 0.00013042423070517
field sum 9.9044202974743
field sqrsum 0.0029016255464667
field min 8.496e-007
field max 0.000419039819
statistic Basic.rack[15].node[8].app 	hops
field count 124116
field mean 4.2415724000129
field stddev 0.83208014518363
field sum 526447
field sqrsum 2318895
field min 3
field max 5
statistic Basic.rack[15].node[9].app 	throughput
field count 123963
field mean 61982
field stddev 35785.180047053
field sum 7683474666
field sqrsum 6.3498027450579e+014
field min 1
field max 123963
statistic Basic.rack[15].node[9].app 	"End-to-End Delay"
field count 123963
field mean 7.9364572099082e-005
field stddev 0.00013000766296103
field sum 9.8382704511186
field sqrsum 0.0028760149099808
field min 8.496e-007
field max 0.000419128219
statistic Basic.rack[15].node[9].app 	hops
field count 123963
field mean 4.2405637165929
field stddev 0.83133885472499
field sum 525673
field sqrsum 2314823
field min 3
field max 5
statistic Basic.rack[15].eps.queue[0] 	dropsum
field count 32253
field mean 16127
field stddev 9310.783452535
field sum 520144131
field sqrsum 11184312486139
field min 1
field max 32253
statistic Basic.rack[15].eps.queue[1] 	dropsum
field count 0
field mean nan
field stddev nan
field sum 0
field sqrsum 0
field min nan
field max nan
statistic Basic.rack[15].eps.queue[2] 	dropsum
field count 0
field mean nan
field stddev nan
field sum 0
field sqrsum 0
field min nan
field max nan
statistic Basic.rack[15].eps.queue[3] 	dropsum
field count 0
field mean nan
field stddev nan
field sum 0
field sqrsum 0
field min nan
field max nan
