version 2
run Basic-11-20180510-16:05:59-13088
attr configname Basic
attr datetime 20180510-16:05:59
attr experiment Basic
attr inifile omnetpp.ini
attr iterationvars "$0=exponential(0.5 ms), $1=6, $2=5"
attr iterationvarsf exponential(0.5_ms),6,5-
attr measurement "$0=exponential(0.5 ms), $1=6, $2=5"
attr network Networks.Basic
attr processid 13088
attr repetition 0
attr replication #0
attr resultdir results
attr runnumber 11
attr seedset 11
param **.frameCapacity 50
param **.packetLength "1024 bytes"
param **.pattern 6
param **.sendIaTime "exponential(0.5 ms)"
param **.tp 5

statistic Basic.rack[0].node[0].app 	throughput
field count 20147
field mean 10074
field stddev 5816.082272458
field sum 202960878
field sqrsum 2726102859670
field min 1
field max 20147
statistic Basic.rack[0].node[0].app 	"End-to-End Delay"
field count 20147
field mean 1.6175104750881e-005
field stddev 5.815996657946e-006
field sum 0.325879835416
field sqrsum 5.9525953858587e-006
field min 9.4416e-006
field max 5.0869318e-005
statistic Basic.rack[0].node[0].app 	hops
field count 20147
field mean 5.8367995235023
field stddev 0.89488760619499
field sum 117594
field sqrsum 702506
field min 4
field max 7
statistic Basic.rack[0].node[1].app 	throughput
field count 20080
field mean 10040.5
field stddev 5796.7410384342
field sum 201613240
field sqrsum 2698996443880
field min 1
field max 20080
statistic Basic.rack[0].node[1].app 	"End-to-End Delay"
field count 20080
field mean 1.6275698993476e-005
field stddev 5.8331833709501e-006
field sum 0.326816035789
field sqrsum 6.0023680457565e-006
field min 9.4416e-006
field max 5.9644923e-005
statistic Basic.rack[0].node[1].app 	hops
field count 20080
field mean 5.8360557768924
field stddev 0.89862397970549
field sum 117188
field sqrsum 700130
field min 4
field max 7
statistic Basic.rack[0].node[2].app 	throughput
field count 19943
field mean 9972
field stddev 5757.1925449823
field sum 198871596
field sqrsum 2644130449884
field min 1
field max 19943
statistic Basic.rack[0].node[2].app 	"End-to-End Delay"
field count 19943
field mean 1.625470180685e-005
field stddev 5.8802379992143e-006
field sum 0.324167518134
field sqrsum 5.958784843745e-006
field min 9.4416e-006
field max 5.8280942e-005
statistic Basic.rack[0].node[2].app 	hops
field count 19943
field mean 5.8368349796921
field stddev 0.89300935142412
field sum 116404
field sqrsum 695334
field min 4
field max 7
statistic Basic.rack[0].node[3].app 	throughput
field count 19920
field mean 9960.5
field stddev 5750.5530168845
field sum 198413160
field sqrsum 2634992902520
field min 1
field max 19920
statistic Basic.rack[0].node[3].app 	"End-to-End Delay"
field count 19920
field mean 1.621728645989e-005
field stddev 5.8576322911447e-006
field sum 0.323048346281
field sqrsum 5.9224254328571e-006
field min 9.4416e-006
field max 5.8545134e-005
statistic Basic.rack[0].node[3].app 	hops
field count 19920
field mean 5.83609437751
field stddev 0.90221342421457
field sum 116255
field sqrsum 694689
field min 4
field max 7
statistic Basic.rack[0].node[4].app 	throughput
field count 20096
field mean 10048.5
field stddev 5801.3598405891
field sum 201934656
field sqrsum 2705453209536
field min 1
field max 20096
statistic Basic.rack[0].node[4].app 	"End-to-End Delay"
field count 20096
field mean 1.6273011144805e-005
field stddev 5.8605831354051e-006
field sum 0.327022431966
field sqrsum 6.0118312850191e-006
field min 9.4416e-006
field max 6.1322006e-005
statistic Basic.rack[0].node[4].app 	hops
field count 20096
field mean 5.8316580414013
field stddev 0.89313266060713
field sum 117193
field sqrsum 699459
field min 4
field max 7
statistic Basic.rack[0].node[5].app 	throughput
field count 20001
field mean 10001
field stddev 5773.9357027941
field sum 200030001
field sqrsum 2667266710001
field min 1
field max 20001
statistic Basic.rack[0].node[5].app 	"End-to-End Delay"
field count 20001
field mean 1.6270820976851e-005
field stddev 5.8377209088387e-006
field sum 0.325432690358
field sqrsum 5.9766367530199e-006
field min 9.4416e-006
field max 4.9636263e-005
statistic Basic.rack[0].node[5].app 	hops
field count 20001
field mean 5.8317584120794
field stddev 0.89170810965941
field sum 116641
field sqrsum 696125
field min 4
field max 7
statistic Basic.rack[0].node[6].app 	throughput
field count 20010
field mean 10005.5
field stddev 5776.5337790062
field sum 200210055
field sqrsum 2670868870385
field min 1
field max 20010
statistic Basic.rack[0].node[6].app 	"End-to-End Delay"
field count 20010
field mean 1.6302886491904e-005
field stddev 5.7871793800265e-006
field sum 0.326220758703
field sqrsum 5.9884703269766e-006
field min 9.4416e-006
field max 5.1077219e-005
statistic Basic.rack[0].node[6].app 	hops
field count 20010
field mean 5.8307846076962
field stddev 0.89313653619725
field sum 116674
field sqrsum 696262
field min 4
field max 7
statistic Basic.rack[0].node[7].app 	throughput
field count 20257
field mean 10129
field stddev 5847.8365372731
field sum 205183153
field sqrsum 2770998481265
field min 1
field max 20257
statistic Basic.rack[0].node[7].app 	"End-to-End Delay"
field count 20257
field mean 1.6229115771881e-005
field stddev 5.7797974110497e-006
field sum 0.328753198191
field sqrsum 6.0120468269505e-006
field min 9.4416e-006
field max 5.3863004e-005
statistic Basic.rack[0].node[7].app 	hops
field count 20257
field mean 5.8299353309967
field stddev 0.89564968033581
field sum 118097
field sqrsum 704747
field min 4
field max 7
statistic Basic.rack[0].node[8].app 	throughput
field count 19683
field mean 9842
field stddev 5682.1370099638
field sum 193720086
field sqrsum 2542059541854
field min 1
field max 19683
statistic Basic.rack[0].node[8].app 	"End-to-End Delay"
field count 19683
field mean 1.6242710478484e-005
field stddev 5.8076318621732e-006
field sum 0.319705270348
field sqrsum 5.8567262107034e-006
field min 9.4416e-006
field max 5.0514326e-005
statistic Basic.rack[0].node[8].app 	hops
field count 19683
field mean 5.8314789412183
field stddev 0.89970627279136
field sum 114781
field sqrsum 685275
field min 4
field max 7
statistic Basic.rack[0].node[9].app 	throughput
field count 19787
field mean 9894
field stddev 5712.1592239713
field sum 195772578
field sqrsum 2582566591450
field min 1
field max 19787
statistic Basic.rack[0].node[9].app 	"End-to-End Delay"
field count 19787
field mean 1.6254190306565e-005
field stddev 5.8504536924479e-006
field sum 0.321621663596
field sqrsum 5.9049311439537e-006
field min 9.4416e-006
field max 5.4273352e-005
statistic Basic.rack[0].node[9].app 	hops
field count 19787
field mean 5.8347399807955
field stddev 0.9021017200138
field sum 115452
field sqrsum 689734
field min 4
field max 7
statistic Basic.rack[0].eps.queue[0] 	dropsum
field count 0
field mean nan
field stddev nan
field sum 0
field sqrsum 0
field min nan
field max nan
statistic Basic.rack[0].eps.queue[1] 	dropsum
field count 0
field mean nan
field stddev nan
field sum 0
field sqrsum 0
field min nan
field max nan
statistic Basic.rack[0].eps.queue[2] 	dropsum
field count 0
field mean nan
field stddev nan
field sum 0
field sqrsum 0
field min nan
field max nan
statistic Basic.rack[0].eps.queue[3] 	dropsum
field count 0
field mean nan
field stddev nan
field sum 0
field sqrsum 0
field min nan
field max nan
statistic Basic.rack[1].node[0].app 	throughput
field count 19878
field mean 9939.5
field stddev 5738.4286612277
field sum 197577381
field sqrsum 2618361312139
field min 1
field max 19878
statistic Basic.rack[1].node[0].app 	"End-to-End Delay"
field count 19878
field mean 1.4162084990642e-005
field stddev 8.2972317499728e-006
field sum 0.28151392544398
field sqrsum 5.3552374137123e-006
field min 8.496e-007
field max 4.8927503e-005
statistic Basic.rack[1].node[0].app 	hops
field count 19878
field mean 5.428866083107
field stddev 0.86145795451149
field sum 107915
field sqrsum 600607
field min 4
field max 7
statistic Basic.rack[1].node[1].app 	throughput
field count 19934
field mean 9967.5
field stddev 5754.5944687701
field sum 198692145
field sqrsum 2640552376335
field min 1
field max 19934
statistic Basic.rack[1].node[1].app 	"End-to-End Delay"
field count 19934
field mean 1.4056655488611e-005
field stddev 8.33617632893e-006
field sum 0.28020537050998
field sqrsum 5.32393112206e-006
field min 8.496e-007
field max 5.8889277e-005
statistic Basic.rack[1].node[1].app 	hops
field count 19934
field mean 5.4100030099328
field stddev 0.86266756304353
field sum 107843
field sqrsum 598265
field min 4
field max 7
statistic Basic.rack[1].node[2].app 	throughput
field count 19872
field mean 9936.5
field stddev 5736.6966104196
field sum 197458128
field sqrsum 2615991099120
field min 1
field max 19872
statistic Basic.rack[1].node[2].app 	"End-to-End Delay"
field count 19872
field mean 1.39624474611e-005
field stddev 8.3125057843629e-006
field sum 0.27746175594698
field sqrsum 5.247086628114e-006
field min 8.496e-007
field max 6.334091e-005
statistic Basic.rack[1].node[2].app 	hops
field count 19872
field mean 5.4231582125604
field stddev 0.85965090440744
field sum 107769
field sqrsum 599133
field min 4
field max 7
statistic Basic.rack[1].node[3].app 	throughput
field count 19837
field mean 9919
field stddev 5726.5929807056
field sum 196763203
field sqrsum 2602193359675
field min 1
field max 19837
statistic Basic.rack[1].node[3].app 	"End-to-End Delay"
field count 19837
field mean 1.4082431577808e-005
field stddev 8.2770947659749e-006
field sum 0.27935319520898
field sqrsum 5.2929425240376e-006
field min 8.496e-007
field max 6.4080227e-005
statistic Basic.rack[1].node[3].app 	hops
field count 19837
field mean 5.4141755305742
field stddev 0.86317219323175
field sum 107401
field sqrsum 596267
field min 4
field max 7
statistic Basic.rack[1].node[4].app 	throughput
field count 19979
field mean 9990
field stddev 5767.584849831
field sum 199590210
field sqrsum 2658475067130
field min 1
field max 19979
statistic Basic.rack[1].node[4].app 	"End-to-End Delay"
field count 19979
field mean 1.4119628445417e-005
field stddev 8.3785673800418e-006
field sum 0.28209605671098
field sqrsum 5.3855549249047e-006
field min 8.496e-007
field max 6.1119522e-005
statistic Basic.rack[1].node[4].app 	hops
field count 19979
field mean 5.4221933029681
field stddev 0.86476156731108
field sum 108330
field sqrsum 602326
field min 4
field max 7
statistic Basic.rack[1].node[5].app 	throughput
field count 19952
field mean 9976.5
field stddev 5759.7906211945
field sum 199051128
field sqrsum 2647711754280
field min 1
field max 19952
statistic Basic.rack[1].node[5].app 	"End-to-End Delay"
field count 19952
field mean 1.4030192503207e-005
field stddev 8.3702634473614e-006
field sum 0.27993040082398
field sqrsum 5.3252706104262e-006
field min 8.496e-007
field max 6.9010184e-005
statistic Basic.rack[1].node[5].app 	hops
field count 19952
field mean 5.419556936648
field stddev 0.86241908171935
field sum 108131
field sqrsum 600861
field min 4
field max 7
statistic Basic.rack[1].node[6].app 	throughput
field count 20123
field mean 10062
field stddev 5809.1540692256
field sum 202477626
field sqrsum 2716372337874
field min 1
field max 20123
statistic Basic.rack[1].node[6].app 	"End-to-End Delay"
field count 20123
field mean 1.4210607186601e-005
field stddev 8.4327219158834e-006
field sum 0.28596004841598
field sqrsum 5.4945574147805e-006
field min 8.496e-007
field max 7.2980657e-005
statistic Basic.rack[1].node[6].app 	hops
field count 20123
field mean 5.4110719077672
field stddev 0.86148332686156
field sum 108887
field sqrsum 604129
field min 4
field max 7
statistic Basic.rack[1].node[7].app 	throughput
field count 19975
field mean 9988
field stddev 5766.4301492923
field sum 199510300
field sqrsum 2656878665100
field min 1
field max 19975
statistic Basic.rack[1].node[7].app 	"End-to-End Delay"
field count 19975
field mean 1.4073493931513e-005
field stddev 8.3641203497186e-006
field sum 0.28111804128198
field sqrsum 5.3536643112726e-006
field min 8.496e-007
field max 6.2766634e-005
statistic Basic.rack[1].node[7].app 	hops
field count 19975
field mean 5.4237797246558
field stddev 0.8621203271211
field sum 108340
field sqrsum 602458
field min 4
field max 7
statistic Basic.rack[1].node[8].app 	throughput
field count 20015
field mean 10008
field stddev 5777.9771546797
field sum 200310120
field sqrsum 2672871471240
field min 1
field max 20015
statistic Basic.rack[1].node[8].app 	"End-to-End Delay"
field count 20015
field mean 1.4098204366224e-005
field stddev 8.3701884540725e-006
field sum 0.28217556038998
field sqrsum 5.3803506534321e-006
field min 8.496e-007
field max 5.3675831e-005
statistic Basic.rack[1].node[8].app 	hops
field count 20015
field mean 5.4125405945541
field stddev 0.86458623571455
field sum 108332
field sqrsum 601312
field min 4
field max 7
statistic Basic.rack[1].node[9].app 	throughput
field count 20154
field mean 10077.5
field stddev 5818.1029984008
field sum 203101935
field sqrsum 2728945299305
field min 1
field max 20154
statistic Basic.rack[1].node[9].app 	"End-to-End Delay"
field count 20154
field mean 1.402740676734e-005
field stddev 8.3602299306749e-006
field sum 0.28270835598898
field sqrsum 5.3742276928661e-006
field min 8.496e-007
field max 5.3788545e-005
statistic Basic.rack[1].node[9].app 	hops
field count 20154
field mean 5.4068175052099
field stddev 0.86707768529689
field sum 108969
field sqrsum 604327
field min 4
field max 7
statistic Basic.rack[1].eps.queue[0] 	dropsum
field count 0
field mean nan
field stddev nan
field sum 0
field sqrsum 0
field min nan
field max nan
statistic Basic.rack[1].eps.queue[1] 	dropsum
field count 0
field mean nan
field stddev nan
field sum 0
field sqrsum 0
field min nan
field max nan
statistic Basic.rack[1].eps.queue[2] 	dropsum
field count 0
field mean nan
field stddev nan
field sum 0
field sqrsum 0
field min nan
field max nan
statistic Basic.rack[1].eps.queue[3] 	dropsum
field count 0
field mean nan
field stddev nan
field sum 0
field sqrsum 0
field min nan
field max nan
statistic Basic.rack[2].node[0].app 	throughput
field count 19899
field mean 9950
field stddev 5744.4908390561
field sum 197995050
field sqrsum 2626668331650
field min 1
field max 19899
statistic Basic.rack[2].node[0].app 	"End-to-End Delay"
field count 19899
field mean 1.5031367534951e-005
field stddev 5.3576159176667e-006
field sum 0.29910918257799
field sqrsum 5.0671732099046e-006
field min 8.992e-006
field max 5.0272712e-005
statistic Basic.rack[2].node[0].app 	hops
field count 19899
field mean 5.3443389115031
field stddev 1.0234605972135
field sum 106347
field sqrsum 589197
field min 3
field max 7
statistic Basic.rack[2].node[1].app 	throughput
field count 20057
field mean 10029
field stddev 5790.1015103364
field sum 201151653
field sqrsum 2689732853365
field min 1
field max 20057
statistic Basic.rack[2].node[1].app 	"End-to-End Delay"
field count 20057
field mean 1.5124178895198e-005
field stddev 5.4161820351975e-006
field sum 0.30334565610099
field sqrsum 5.1761972882796e-006
field min 8.992e-006
field max 5.3150061e-005
statistic Basic.rack[2].node[1].app 	hops
field count 20057
field mean 5.3277160093733
field stddev 1.0324540868646
field sum 106858
field sqrsum 590688
field min 3
field max 7
statistic Basic.rack[2].node[2].app 	throughput
field count 20016
field mean 10008.5
field stddev 5778.2658298143
field sum 200330136
field sqrsum 2673272111496
field min 1
field max 20016
statistic Basic.rack[2].node[2].app 	"End-to-End Delay"
field count 20016
field mean 1.5079148916616e-005
field stddev 5.4415026668623e-006
field sum 0.30182424471499
field sqrsum 5.1438959074411e-006
field min 8.992e-006
field max 6.3641805e-005
statistic Basic.rack[2].node[2].app 	hops
field count 20016
field mean 5.3315847322142
field stddev 1.0261208085208
field sum 106717
field sqrsum 590045
field min 3
field max 7
statistic Basic.rack[2].node[3].app 	throughput
field count 19993
field mean 9997
field stddev 5771.6263017166
field sum 199870021
field sqrsum 2664067509909
field min 1
field max 19993
statistic Basic.rack[2].node[3].app 	"End-to-End Delay"
field count 19993
field mean 1.5032255563947e-005
field stddev 5.3565711956567e-006
field sum 0.30053988548999
field sqrsum 5.0914199224879e-006
field min 8.992e-006
field max 4.8106008e-005
statistic Basic.rack[2].node[3].app 	hops
field count 19993
field mean 5.3420197068974
field stddev 1.0135454464209
field sum 106803
field sqrsum 591081
field min 3
field max 7
statistic Basic.rack[2].node[4].app 	throughput
field count 20025
field mean 10013
field stddev 5780.8639060265
field sum 200510325
field sqrsum 2676879675525
field min 1
field max 20025
statistic Basic.rack[2].node[4].app 	"End-to-End Delay"
field count 20025
field mean 1.5008029331186e-005
field stddev 5.3907642710678e-006
field sum 0.30053578735699
field sqrsum 5.0923541483954e-006
field min 8.992e-006
field max 4.9762052e-005
statistic Basic.rack[2].node[4].app 	hops
field count 20025
field mean 5.3285892634207
field stddev 1.0339300357143
field sum 106705
field sqrsum 589993
field min 3
field max 7
statistic Basic.rack[2].node[5].app 	throughput
field count 20097
field mean 10049
field stddev 5801.6485157238
field sum 201954753
field sqrsum 2705857098945
field min 1
field max 20097
statistic Basic.rack[2].node[5].app 	"End-to-End Delay"
field count 20097
field mean 1.5027381638553e-005
field stddev 5.3431305315125e-006
field sum 0.30200528878999
field sqrsum 5.1120703172563e-006
field min 8.992e-006
field max 5.4845759e-005
statistic Basic.rack[2].node[5].app 	hops
field count 20097
field mean 5.3344280240832
field stddev 1.026987287478
field sum 107206
field sqrsum 593078
field min 3
field max 7
statistic Basic.rack[2].node[6].app 	throughput
field count 20046
field mean 10023.5
field stddev 5786.9260838549
field sum 200931081
field sqrsum 2685309943511
field min 1
field max 20046
statistic Basic.rack[2].node[6].app 	"End-to-End Delay"
field count 20046
field mean 1.5023410015015e-005
field stddev 5.390250089848e-006
field sum 0.30115927716099
field sqrsum 5.1068426870587e-006
field min 8.992e-006
field max 5.5283037e-005
statistic Basic.rack[2].node[6].app 	hops
field count 20046
field mean 5.317170507832
field stddev 1.0268393728284
field sum 106588
field sqrsum 587882
field min 3
field max 7
statistic Basic.rack[2].node[7].app 	throughput
field count 20156
field mean 10078.5
field stddev 5818.6803486701
field sum 203142246
field sqrsum 2729757787666
field min 1
field max 20156
statistic Basic.rack[2].node[7].app 	"End-to-End Delay"
field count 20156
field mean 1.5069413611431e-005
field stddev 5.3271629891596e-006
field sum 0.30373910075199
field sqrsum 5.1491421426117e-006
field min 8.992e-006
field max 4.8893074e-005
statistic Basic.rack[2].node[7].app 	hops
field count 20156
field mean 5.3373189124826
field stddev 1.0290633640816
field sum 107579
field sqrsum 595527
field min 3
field max 7
statistic Basic.rack[2].node[8].app 	throughput
field count 20189
field mean 10095
field stddev 5828.2066281147
field sum 203807955
field sqrsum 2743187138315
field min 1
field max 20189
statistic Basic.rack[2].node[8].app 	"End-to-End Delay"
field count 20189
field mean 1.5059237611224e-005
field stddev 5.3201637169061e-006
field sum 0.304030948133
field sqrsum 5.1498783072854e-006
field min 8.992e-006
field max 5.2469144e-005
statistic Basic.rack[2].node[8].app 	hops
field count 20189
field mean 5.3392441428501
field stddev 1.025471057088
field sum 107794
field sqrsum 596768
field min 3
field max 7
statistic Basic.rack[2].node[9].app 	throughput
field count 19854
field mean 9927.5
field stddev 5731.5004579953
field sum 197100585
field sqrsum 2608889043255
field min 1
field max 19854
statistic Basic.rack[2].node[9].app 	"End-to-End Delay"
field count 19854
field mean 1.5059128970988e-005
field stddev 5.4022498558034e-006
field sum 0.29898394658999
field sqrsum 5.081833789429e-006
field min 8.992e-006
field max 5.9669436e-005
statistic Basic.rack[2].node[9].app 	hops
field count 19854
field mean 5.3289513448172
field stddev 1.0344545156825
field sum 105801
field sqrsum 585053
field min 3
field max 7
statistic Basic.rack[2].eps.queue[0] 	dropsum
field count 0
field mean nan
field stddev nan
field sum 0
field sqrsum 0
field min nan
field max nan
statistic Basic.rack[2].eps.queue[1] 	dropsum
field count 0
field mean nan
field stddev nan
field sum 0
field sqrsum 0
field min nan
field max nan
statistic Basic.rack[2].eps.queue[2] 	dropsum
field count 0
field mean nan
field stddev nan
field sum 0
field sqrsum 0
field min nan
field max nan
statistic Basic.rack[2].eps.queue[3] 	dropsum
field count 0
field mean nan
field stddev nan
field sum 0
field sqrsum 0
field min nan
field max nan
statistic Basic.rack[3].node[0].app 	throughput
field count 19826
field mean 9913.5
field stddev 5723.417554224
field sum 196545051
field sqrsum 2597866969101
field min 1
field max 19826
statistic Basic.rack[3].node[0].app 	"End-to-End Delay"
field count 19826
field mean 1.5058929788257e-005
field stddev 5.3981147855953e-006
field sum 0.29855834198199
field sqrsum 5.0736625368079e-006
field min 8.992e-006
field max 5.758656e-005
statistic Basic.rack[3].node[0].app 	hops
field count 19826
field mean 5.3294663573086
field stddev 1.0302835896539
field sum 105662
field sqrsum 584166
field min 3
field max 7
statistic Basic.rack[3].node[1].app 	throughput
field count 19908
field mean 9954.5
field stddev 5747.0889152683
field sum 198174186
field sqrsum 2630233854654
field min 1
field max 19908
statistic Basic.rack[3].node[1].app 	"End-to-End Delay"
field count 19908
field mean 1.5081203964737e-005
field stddev 5.3745739692926e-006
field sum 0.30023660852999
field sqrsum 5.1029640357321e-006
field min 8.992e-006
field max 6.4829688e-005
statistic Basic.rack[3].node[1].app 	hops
field count 19908
field mean 5.3154008438819
field stddev 1.0334875684011
field sum 105819
field sqrsum 583733
field min 3
field max 7
statistic Basic.rack[3].node[2].app 	throughput
field count 20236
field mean 10118.5
field stddev 5841.7743594448
field sum 204757966
field sqrsum 2762389719306
field min 1
field max 20236
statistic Basic.rack[3].node[2].app 	"End-to-End Delay"
field count 20236
field mean 1.5106692407985e-005
field stddev 5.4345445032042e-006
field sum 0.30569902756799
field sqrsum 5.2157272124161e-006
field min 8.992e-006
field max 6.1730207e-005
statistic Basic.rack[3].node[2].app 	hops
field count 20236
field mean 5.3356394544376
field stddev 1.0287283545477
field sum 107972
field sqrsum 597514
field min 3
field max 7
statistic Basic.rack[3].node[3].app 	throughput
field count 20017
field mean 10009
field stddev 5778.554504949
field sum 200350153
field sqrsum 2673672791785
field min 1
field max 20017
statistic Basic.rack[3].node[3].app 	"End-to-End Delay"
field count 20017
field mean 1.5070826098966e-005
field stddev 5.3524404915603e-006
field sum 0.30167272602299
field sqrsum 5.1198879549148e-006
field min 8.992e-006
field max 5.1059234e-005
statistic Basic.rack[3].node[3].app 	hops
field count 20017
field mean 5.3369635809562
field stddev 1.0260929484854
field sum 106830
field sqrsum 591222
field min 3
field max 7
statistic Basic.rack[3].node[4].app 	throughput
field count 20122
field mean 10061.5
field stddev 5808.8653940909
field sum 202457503
field sqrsum 2715967402745
field min 1
field max 20122
statistic Basic.rack[3].node[4].app 	"End-to-End Delay"
field count 20122
field mean 1.5128925902395e-005
field stddev 5.3836011492155e-006
field sum 0.30442424700799
field sqrsum 5.1887820650744e-006
field min 8.992e-006
field max 6.1312003e-005
statistic Basic.rack[3].node[4].app 	hops
field count 20122
field mean 5.3535930821986
field stddev 1.0166152400993
field sum 107725
field sqrsum 597511
field min 3
field max 7
statistic Basic.rack[3].node[5].app 	throughput
field count 20145
field mean 10073
field stddev 5815.5049221886
field sum 202920585
field sqrsum 2725291096745
field min 1
field max 20145
statistic Basic.rack[3].node[5].app 	"End-to-End Delay"
field count 20145
field mean 1.5118879649292e-005
field stddev 5.3626343150488e-006
field sum 0.304569830535
field sqrsum 5.1840526785415e-006
field min 8.992e-006
field max 6.5667017e-005
statistic Basic.rack[3].node[5].app 	hops
field count 20145
field mean 5.3356664184661
field stddev 1.021954776226
field sum 107487
field sqrsum 594553
field min 3
field max 7
statistic Basic.rack[3].node[6].app 	throughput
field count 20100
field mean 10050.5
field stddev 5802.5145411278
field sum 202015050
field sqrsum 2707069008350
field min 1
field max 20100
statistic Basic.rack[3].node[6].app 	"End-to-End Delay"
field count 20100
field mean 1.5113024543831e-005
field stddev 5.3680004327034e-006
field sum 0.303771793331
field sqrsum 5.1700718686808e-006
field min 8.992e-006
field max 4.8145093e-005
statistic Basic.rack[3].node[6].app 	hops
field count 20100
field mean 5.3346268656716
field stddev 1.0306825736206
field sum 107226
field sqrsum 593362
field min 3
field max 7
statistic Basic.rack[3].node[7].app 	throughput
field count 19809
field mean 9905
field stddev 5718.5100769344
field sum 196208145
field sqrsum 2591190165585
field min 1
field max 19809
statistic Basic.rack[3].node[7].app 	"End-to-End Delay"
field count 19809
field mean 1.5090293418749e-005
field stddev 5.3849819716356e-006
field sum 0.29892362233199
field sqrsum 5.0852381655615e-006
field min 8.992e-006
field max 5.9022493e-005
statistic Basic.rack[3].node[7].app 	hops
field count 19809
field mean 5.3381291332223
field stddev 1.0278633089619
field sum 105743
field sqrsum 585397
field min 3
field max 7
statistic Basic.rack[3].node[8].app 	throughput
field count 19710
field mean 9855.5
field stddev 5689.9312386003
field sum 194251905
field sqrsum 2552534782335
field min 1
field max 19710
statistic Basic.rack[3].node[8].app 	"End-to-End Delay"
field count 19710
field mean 1.5084495630339e-005
field stddev 5.4268599271827e-006
field sum 0.29731540887399
field sqrsum 5.0652989740548e-006
field min 8.992e-006
field max 6.3122672e-005
statistic Basic.rack[3].node[8].app 	hops
field count 19710
field mean 5.3440892947742
field stddev 1.0191326739515
field sum 105332
field sqrsum 583374
field min 3
field max 7
statistic Basic.rack[3].node[9].app 	throughput
field count 20028
field mean 10014.5
field stddev 5781.7299314306
field sum 200570406
field sqrsum 2678082917714
field min 1
field max 20028
statistic Basic.rack[3].node[9].app 	"End-to-End Delay"
field count 20028
field mean 1.5075559440134e-005
field stddev 5.3515164907727e-006
field sum 0.30193330446699
field sqrsum 5.1253612991446e-006
field min 8.992e-006
field max 5.6295107e-005
statistic Basic.rack[3].node[9].app 	hops
field count 20028
field mean 5.3314359896145
field stddev 1.0302250017587
field sum 106778
field sqrsum 590536
field min 3
field max 7
statistic Basic.rack[3].eps.queue[0] 	dropsum
field count 0
field mean nan
field stddev nan
field sum 0
field sqrsum 0
field min nan
field max nan
statistic Basic.rack[3].eps.queue[1] 	dropsum
field count 0
field mean nan
field stddev nan
field sum 0
field sqrsum 0
field min nan
field max nan
statistic Basic.rack[3].eps.queue[2] 	dropsum
field count 0
field mean nan
field stddev nan
field sum 0
field sqrsum 0
field min nan
field max nan
statistic Basic.rack[3].eps.queue[3] 	dropsum
field count 0
field mean nan
field stddev nan
field sum 0
field sqrsum 0
field min nan
field max nan
statistic Basic.rack[4].node[0].app 	throughput
field count 19733
field mean 9867
field stddev 5696.5707666982
field sum 194705511
field sqrsum 2561480800879
field min 1
field max 19733
statistic Basic.rack[4].node[0].app 	"End-to-End Delay"
field count 19733
field mean 1.4128895189833e-005
field stddev 8.3721115837602e-006
field sum 0.27880548878098
field sqrsum 5.3222738531199e-006
field min 8.496e-007
field max 5.6824282e-005
statistic Basic.rack[4].node[0].app 	hops
field count 19733
field mean 5.4119495261744
field stddev 0.86453956480811
field sum 106794
field sqrsum 592712
field min 4
field max 7
statistic Basic.rack[4].node[1].app 	throughput
field count 19902
field mean 9951.5
field stddev 5745.3568644602
field sum 198054753
field sqrsum 2627856481055
field min 1
field max 19902
statistic Basic.rack[4].node[1].app 	"End-to-End Delay"
field count 19902
field mean 1.41482673165e-005
field stddev 8.3099769510963e-006
field sum 0.28157881613298
field sqrsum 5.3581301838922e-006
field min 8.496e-007
field max 6.0826677e-005
statistic Basic.rack[4].node[1].app 	hops
field count 19902
field mean 5.4265400462265
field stddev 0.86394430154508
field sum 107999
field sqrsum 600915
field min 4
field max 7
statistic Basic.rack[4].node[2].app 	throughput
field count 20224
field mean 10112.5
field stddev 5838.3102578286
field sum 204515200
field sqrsum 2757478441600
field min 1
field max 20224
statistic Basic.rack[4].node[2].app 	"End-to-End Delay"
field count 20224
field mean 1.4169131088508e-005
field stddev 8.3884605773083e-006
field sum 0.28655650713398
field sqrsum 5.4832738093886e-006
field min 8.496e-007
field max 8.0732467e-005
statistic Basic.rack[4].node[2].app 	hops
field count 20224
field mean 5.4147547468354
field stddev 0.8632742358871
field sum 109508
field sqrsum 608030
field min 4
field max 7
statistic Basic.rack[4].node[3].app 	throughput
field count 20058
field mean 10029.5
field stddev 5790.3901854711
field sum 201171711
field sqrsum 2690135176729
field min 1
field max 20058
statistic Basic.rack[4].node[3].app 	"End-to-End Delay"
field count 20058
field mean 1.4132820304865e-005
field stddev 8.3060434381397e-006
field sum 0.28347610967498
field sqrsum 5.3900565210669e-006
field min 8.496e-007
field max 6.4624142e-005
statistic Basic.rack[4].node[3].app 	hops
field count 20058
field mean 5.4241200518496
field stddev 0.86591776011294
field sum 108797
field sqrsum 605167
field min 4
field max 7
statistic Basic.rack[4].node[4].app 	throughput
field count 19948
field mean 9974.5
field stddev 5758.6359206557
field sum 198971326
field sqrsum 2646119664474
field min 1
field max 19948
statistic Basic.rack[4].node[4].app 	"End-to-End Delay"
field count 19948
field mean 1.405785448105e-005
field stddev 8.3399684398016e-006
field sum 0.28042608118798
field sqrsum 5.3296040946698e-006
field min 8.496e-007
field max 5.8189505e-005
statistic Basic.rack[4].node[4].app 	hops
field count 19948
field mean 5.4146781632244
field stddev 0.86113543092882
field sum 108012
field sqrsum 599642
field min 4
field max 7
statistic Basic.rack[4].node[5].app 	throughput
field count 19974
field mean 9987.5
field stddev 5766.1414741576
field sum 199490325
field sqrsum 2656479664475
field min 1
field max 19974
statistic Basic.rack[4].node[5].app 	"End-to-End Delay"
field count 19974
field mean 1.4066379811454e-005
field stddev 8.333769196882e-006
field sum 0.28096187035398
field sqrsum 5.3392753653298e-006
field min 8.496e-007
field max 6.0199536e-005
statistic Basic.rack[4].node[5].app 	hops
field count 19974
field mean 5.4206969059778
field stddev 0.85339168580561
field sum 108273
field sqrsum 601461
field min 4
field max 7
statistic Basic.rack[4].node[6].app 	throughput
field count 19943
field mean 9972
field stddev 5757.1925449823
field sum 198871596
field sqrsum 2644130449884
field min 1
field max 19943
statistic Basic.rack[4].node[6].app 	"End-to-End Delay"
field count 19943
field mean 1.4216927286766e-005
field stddev 8.3962221277521e-006
field sum 0.28352818087998
field sqrsum 5.4367416520218e-006
field min 8.496e-007
field max 5.6733828e-005
statistic Basic.rack[4].node[6].app 	hops
field count 19943
field mean 5.4189439903726
field stddev 0.86121254080461
field sum 108070
field sqrsum 600416
field min 4
field max 7
statistic Basic.rack[4].node[7].app 	throughput
field count 19904
field mean 9952.5
field stddev 5745.9342147296
field sum 198094560
field sqrsum 2628648779680
field min 1
field max 19904
statistic Basic.rack[4].node[7].app 	"End-to-End Delay"
field count 19904
field mean 1.4173519317674e-005
field stddev 8.3961919842947e-006
field sum 0.28210972849898
field sqrsum 5.4015703674626e-006
field min 8.496e-007
field max 6.620652e-005
statistic Basic.rack[4].node[7].app 	hops
field count 19904
field mean 5.4134344855305
field stddev 0.8648526091775
field sum 107749
field sqrsum 598179
field min 4
field max 7
statistic Basic.rack[4].node[8].app 	throughput
field count 20263
field mean 10132
field stddev 5849.5685880812
field sum 205304716
field sqrsum 2773461408444
field min 1
field max 20263
statistic Basic.rack[4].node[8].app 	"End-to-End Delay"
field count 20263
field mean 1.4200405714207e-005
field stddev 8.3558713706854e-006
field sum 0.28774282098698
field sqrsum 5.5007695202617e-006
field min 8.496e-007
field max 4.9807621e-005
statistic Basic.rack[4].node[8].app 	hops
field count 20263
field mean 5.4149928441001
field stddev 0.8654218329046
field sum 109724
field sqrsum 609330
field min 4
field max 7
statistic Basic.rack[4].node[9].app 	throughput
field count 19831
field mean 9916
field stddev 5724.8609298975
field sum 196644196
field sqrsum 2599832915316
field min 1
field max 19831
statistic Basic.rack[4].node[9].app 	"End-to-End Delay"
field count 19831
field mean 1.4018476577831e-005
field stddev 8.3543545528625e-006
field sum 0.27800040901498
field sqrsum 5.2811818315036e-006
field min 8.496e-007
field max 5.7495313e-005
statistic Basic.rack[4].node[9].app 	hops
field count 19831
field mean 5.4143512682164
field stddev 0.86683371375096
field sum 107372
field sqrsum 596250
field min 4
field max 7
statistic Basic.rack[4].eps.queue[0] 	dropsum
field count 0
field mean nan
field stddev nan
field sum 0
field sqrsum 0
field min nan
field max nan
statistic Basic.rack[4].eps.queue[1] 	dropsum
field count 0
field mean nan
field stddev nan
field sum 0
field sqrsum 0
field min nan
field max nan
statistic Basic.rack[4].eps.queue[2] 	dropsum
field count 0
field mean nan
field stddev nan
field sum 0
field sqrsum 0
field min nan
field max nan
statistic Basic.rack[4].eps.queue[3] 	dropsum
field count 0
field mean nan
field stddev nan
field sum 0
field sqrsum 0
field min nan
field max nan
statistic Basic.rack[5].node[0].app 	throughput
field count 19864
field mean 9932.5
field stddev 5734.3872093421
field sum 197299180
field sqrsum 2612833040740
field min 1
field max 19864
statistic Basic.rack[5].node[0].app 	"End-to-End Delay"
field count 19864
field mean 1.6246053287908e-005
field stddev 5.8423942262287e-006
field sum 0.322711602511
field sqrsum 5.9207849977829e-006
field min 9.4416e-006
field max 5.7404747e-005
statistic Basic.rack[5].node[0].app 	hops
field count 19864
field mean 5.8316049134112
field stddev 0.90258871393102
field sum 115839
field sqrsum 691709
field min 4
field max 7
statistic Basic.rack[5].node[1].app 	throughput
field count 20024
field mean 10012.5
field stddev 5780.5752308918
field sum 200490300
field sqrsum 2676478674900
field min 1
field max 20024
statistic Basic.rack[5].node[1].app 	"End-to-End Delay"
field count 20024
field mean 1.6257086462495e-005
field stddev 5.8500915870681e-006
field sum 0.325531899325
field sqrsum 5.9774588073148e-006
field min 9.4416e-006
field max 5.0837064e-005
statistic Basic.rack[5].node[1].app 	hops
field count 20024
field mean 5.8376448262085
field stddev 0.89768171373386
field sum 116893
field sqrsum 698515
field min 4
field max 7
statistic Basic.rack[5].node[2].app 	throughput
field count 20045
field mean 10023
field stddev 5786.6374087202
field sum 200911035
field sqrsum 2684908101395
field min 1
field max 20045
statistic Basic.rack[5].node[2].app 	"End-to-End Delay"
field count 20045
field mean 1.6259781519531e-005
field stddev 5.8251524334081e-006
field sum 0.325927320559
field sqrsum 5.9796480666227e-006
field min 9.4416e-006
field max 5.7475471e-005
statistic Basic.rack[5].node[2].app 	hops
field count 20045
field mean 5.8291843352457
field stddev 0.89743217697332
field sum 116846
field sqrsum 697260
field min 4
field max 7
statistic Basic.rack[5].node[3].app 	throughput
field count 19828
field mean 9914.5
field stddev 5723.9949044934
field sum 196584706
field sqrsum 2598653228614
field min 1
field max 19828
statistic Basic.rack[5].node[3].app 	"End-to-End Delay"
field count 19828
field mean 1.6240402771888e-005
field stddev 5.8316681150468e-006
field sum 0.322014706161
field sqrsum 5.9039321415372e-006
field min 9.4416e-006
field max 5.0065214e-005
statistic Basic.rack[5].node[3].app 	hops
field count 19828
field mean 5.8166229574339
field stddev 0.90294768635656
field sum 115332
field sqrsum 687008
field min 4
field max 7
statistic Basic.rack[5].node[4].app 	throughput
field count 20014
field mean 10007.5
field stddev 5777.688479545
field sum 200290105
field sqrsum 2672470871015
field min 1
field max 20014
statistic Basic.rack[5].node[4].app 	"End-to-End Delay"
field count 20014
field mean 1.6274804066054e-005
field stddev 5.8772127192111e-006
field sum 0.325723928578
field sqrsum 5.992374745351e-006
field min 9.4416e-006
field max 5.4969143e-005
statistic Basic.rack[5].node[4].app 	hops
field count 20014
field mean 5.8283201758769
field stddev 0.90043234074276
field sum 116648
field sqrsum 696088
field min 4
field max 7
statistic Basic.rack[5].node[5].app 	throughput
field count 19840
field mean 9920.5
field stddev 5727.4590061097
field sum 196822720
field sqrsum 2603374117440
field min 1
field max 19840
statistic Basic.rack[5].node[5].app 	"End-to-End Delay"
field count 19840
field mean 1.6237568763155e-005
field stddev 5.8578940084464e-006
field sum 0.322153364261
field sqrsum 5.9117611462772e-006
field min 9.4416e-006
field max 5.5137012e-005
statistic Basic.rack[5].node[5].app 	hops
field count 19840
field mean 5.8261592741935
field stddev 0.89758381407878
field sum 115591
field sqrsum 689435
field min 4
field max 7
statistic Basic.rack[5].node[6].app 	throughput
field count 19916
field mean 9958.5
field stddev 5749.3983163458
field sum 198333486
field sqrsum 2633405915946
field min 1
field max 19916
statistic Basic.rack[5].node[6].app 	"End-to-End Delay"
field count 19916
field mean 1.6277586745983e-005
field stddev 5.869717238826e-006
field sum 0.324184417633
field sqrsum 5.9630830346532e-006
field min 9.4416e-006
field max 6.3957701e-005
statistic Basic.rack[5].node[6].app 	hops
field count 19916
field mean 5.8275256075517
field stddev 0.90204528005411
field sum 116061
field sqrsum 692553
field min 4
field max 7
statistic Basic.rack[5].node[7].app 	throughput
field count 20025
field mean 10013
field stddev 5780.8639060265
field sum 200510325
field sqrsum 2676879675525
field min 1
field max 20025
statistic Basic.rack[5].node[7].app 	"End-to-End Delay"
field count 20025
field mean 1.6181943949863e-005
field stddev 5.8045534148381e-006
field sum 0.324043427596
field sqrsum 5.9183180177624e-006
field min 9.4416e-006
field max 4.7042883e-005
statistic Basic.rack[5].node[7].app 	hops
field count 20025
field mean 5.8399001248439
field stddev 0.89597581597781
field sum 116944
field sqrsum 699016
field min 4
field max 7
statistic Basic.rack[5].node[8].app 	throughput
field count 19999
field mean 10000
field stddev 5773.3583525247
field sum 199990000
field sqrsum 2666466670000
field min 1
field max 19999
statistic Basic.rack[5].node[8].app 	"End-to-End Delay"
field count 19999
field mean 1.6265306148807e-005
field stddev 5.8876233770583e-006
field sum 0.32528985767
field sqrsum 5.9841519744882e-006
field min 9.4416e-006
field max 5.5447742e-005
statistic Basic.rack[5].node[8].app 	hops
field count 19999
field mean 5.8334416720836
field stddev 0.90049475265849
field sum 116663
field sqrsum 696763
field min 4
field max 7
statistic Basic.rack[5].node[9].app 	throughput
field count 19960
field mean 9980.5
field stddev 5762.100022272
field sum 199210780
field sqrsum 2650897849460
field min 1
field max 19960
statistic Basic.rack[5].node[9].app 	"End-to-End Delay"
field count 19960
field mean 1.6240350269539e-005
field stddev 5.8377543211886e-006
field sum 0.32415739138
field sqrsum 5.9446198343662e-006
field min 9.4416e-006
field max 5.7298898e-005
statistic Basic.rack[5].node[9].app 	hops
field count 19960
field mean 5.825751503006
field stddev 0.89942011723927
field sum 116282
field sqrsum 693576
field min 4
field max 7
statistic Basic.rack[5].eps.queue[0] 	dropsum
field count 0
field mean nan
field stddev nan
field sum 0
field sqrsum 0
field min nan
field max nan
statistic Basic.rack[5].eps.queue[1] 	dropsum
field count 0
field mean nan
field stddev nan
field sum 0
field sqrsum 0
field min nan
field max nan
statistic Basic.rack[5].eps.queue[2] 	dropsum
field count 0
field mean nan
field stddev nan
field sum 0
field sqrsum 0
field min nan
field max nan
statistic Basic.rack[5].eps.queue[3] 	dropsum
field count 0
field mean nan
field stddev nan
field sum 0
field sqrsum 0
field min nan
field max nan
statistic Basic.rack[6].node[0].app 	throughput
field count 19880
field mean 9940.5
field stddev 5739.0060114971
field sum 197617140
field sqrsum 2619151701180
field min 1
field max 19880
statistic Basic.rack[6].node[0].app 	"End-to-End Delay"
field count 19880
field mean 1.1486931131589e-005
field stddev 6.5113852938493e-006
field sum 0.228360190896
field sqrsum 3.4659903801662e-006
field min 1.2992e-006
field max 4.691053e-005
statistic Basic.rack[6].node[0].app 	hops
field count 19880
field mean 5.7465291750503
field stddev 1.3593259418187
field sum 114241
field sqrsum 693221
field min 3
field max 8
statistic Basic.rack[6].node[1].app 	throughput
field count 19957
field mean 9979
field stddev 5761.2339968679
field sum 199150903
field sqrsum 2649702764415
field min 1
field max 19957
statistic Basic.rack[6].node[1].app 	"End-to-End Delay"
field count 19957
field mean 1.1443158685373e-005
field stddev 6.5172437538151e-006
field sum 0.228371117884
field sqrsum 3.4609073875251e-006
field min 1.2992e-006
field max 5.7002282e-005
statistic Basic.rack[6].node[1].app 	hops
field count 19957
field mean 5.7614871974746
field stddev 1.3654067126975
field sum 114982
field sqrsum 699672
field min 3
field max 8
statistic Basic.rack[6].node[2].app 	throughput
field count 19797
field mean 9899
field stddev 5715.0459753181
field sum 195970503
field sqrsum 2586484022095
field min 1
field max 19797
statistic Basic.rack[6].node[2].app 	"End-to-End Delay"
field count 19797
field mean 1.1455962249684e-005
field stddev 6.4882492926793e-006
field sum 0.226793684657
field sqrsum 3.4314996022841e-006
field min 1.2992e-006
field max 5.127599e-005
statistic Basic.rack[6].node[2].app 	hops
field count 19797
field mean 5.7615800373794
field stddev 1.3649677230796
field sum 114062
field sqrsum 694060
field min 3
field max 8
statistic Basic.rack[6].node[3].app 	throughput
field count 20209
field mean 10105
field stddev 5833.9801308084
field sum 204211945
field sqrsum 2751347534985
field min 1
field max 20209
statistic Basic.rack[6].node[3].app 	"End-to-End Delay"
field count 20209
field mean 1.1441745958385e-005
field stddev 6.4807388035548e-006
field sum 0.231226244073
field sqrsum 3.4943674472842e-006
field min 1.2992e-006
field max 4.9303844e-005
statistic Basic.rack[6].node[3].app 	hops
field count 20209
field mean 5.7528328962344
field stddev 1.3614125738343
field sum 116259
field sqrsum 706273
field min 3
field max 8
statistic Basic.rack[6].node[4].app 	throughput
field count 20198
field mean 10099.5
field stddev 5830.8047043268
field sum 203989701
field sqrsum 2746857317099
field min 1
field max 20198
statistic Basic.rack[6].node[4].app 	"End-to-End Delay"
field count 20198
field mean 1.145439065858e-005
field stddev 6.5110656794216e-006
field sum 0.231355782522
field sqrsum 3.5062706530907e-006
field min 1.2992e-006
field max 4.6887253e-005
statistic Basic.rack[6].node[4].app 	hops
field count 20198
field mean 5.7608179027626
field stddev 1.3559737154349
field sum 116357
field sqrsum 707447
field min 3
field max 8
statistic Basic.rack[6].node[5].app 	throughput
field count 19820
field mean 9910.5
field stddev 5721.6855034159
field sum 196426110
field sqrsum 2595509142170
field min 1
field max 19820
statistic Basic.rack[6].node[5].app 	"End-to-End Delay"
field count 19820
field mean 1.1435310770736e-005
field stddev 6.5227185742961e-006
field sum 0.226647859476
field sqrsum 3.4350050603941e-006
field min 1.2992e-006
field max 5.6272628e-005
statistic Basic.rack[6].node[5].app 	hops
field count 19820
field mean 5.7587790110999
field stddev 1.3572239078593
field sum 114139
field sqrsum 693809
field min 3
field max 8
statistic Basic.rack[6].node[6].app 	throughput
field count 20020
field mean 10010.5
field stddev 5779.4205303531
field sum 200410210
field sqrsum 2674875072870
field min 1
field max 20020
statistic Basic.rack[6].node[6].app 	"End-to-End Delay"
field count 20020
field mean 1.144139060959e-005
field stddev 6.5070933458143e-006
field sum 0.229056640004
field sqrsum 3.4683762692412e-006
field min 1.2992e-006
field max 5.63092e-005
statistic Basic.rack[6].node[6].app 	hops
field count 20020
field mean 5.7475524475524
field stddev 1.3635762282955
field sum 115066
field sqrsum 698570
field min 3
field max 8
statistic Basic.rack[6].node[7].app 	throughput
field count 19798
field mean 9899.5
field stddev 5715.3346504528
field sum 195990301
field sqrsum 2586875982899
field min 1
field max 19798
statistic Basic.rack[6].node[7].app 	"End-to-End Delay"
field count 19798
field mean 1.1442455448429e-005
field stddev 6.4220503428938e-006
field sum 0.226537732968
field sqrsum 3.4086302546945e-006
field min 1.2992e-006
field max 5.0393107e-005
statistic Basic.rack[6].node[7].app 	hops
field count 19798
field mean 5.7444691382968
field stddev 1.3671077691997
field sum 113729
field sqrsum 690313
field min 3
field max 8
statistic Basic.rack[6].node[8].app 	throughput
field count 19951
field mean 9976
field stddev 5759.5019460598
field sum 199031176
field sqrsum 2647313671976
field min 1
field max 19951
statistic Basic.rack[6].node[8].app 	"End-to-End Delay"
field count 19951
field mean 1.1487511365997e-005
field stddev 6.456635798591e-006
field sum 0.229187339263
field sqrsum 3.4644706741473e-006
field min 1.2992e-006
field max 6.3258995e-005
statistic Basic.rack[6].node[8].app 	hops
field count 19951
field mean 5.746629241642
field stddev 1.3602707016544
field sum 114651
field sqrsum 695771
field min 3
field max 8
statistic Basic.rack[6].node[9].app 	throughput
field count 19814
field mean 9907.5
field stddev 5719.9534526078
field sum 196307205
field sqrsum 2593152742315
field min 1
field max 19814
statistic Basic.rack[6].node[9].app 	"End-to-End Delay"
field count 19814
field mean 1.1466548319622e-005
field stddev 6.4739365012283e-006
field sum 0.227198188405
field sqrsum 3.4355785652506e-006
field min 1.2992e-006
field max 4.8695022e-005
statistic Basic.rack[6].node[9].app 	hops
field count 19814
field mean 5.7431614010296
field stddev 1.3729979320991
field sum 113795
field sqrsum 690893
field min 3
field max 8
statistic Basic.rack[6].eps.queue[0] 	dropsum
field count 0
field mean nan
field stddev nan
field sum 0
field sqrsum 0
field min nan
field max nan
statistic Basic.rack[6].eps.queue[1] 	dropsum
field count 0
field mean nan
field stddev nan
field sum 0
field sqrsum 0
field min nan
field max nan
statistic Basic.rack[6].eps.queue[2] 	dropsum
field count 0
field mean nan
field stddev nan
field sum 0
field sqrsum 0
field min nan
field max nan
statistic Basic.rack[6].eps.queue[3] 	dropsum
field count 0
field mean nan
field stddev nan
field sum 0
field sqrsum 0
field min nan
field max nan
statistic Basic.rack[7].node[0].app 	throughput
field count 20024
field mean 10012.5
field stddev 5780.5752308918
field sum 200490300
field sqrsum 2676478674900
field min 1
field max 20024
statistic Basic.rack[7].node[0].app 	"End-to-End Delay"
field count 20024
field mean 1.1485802815222e-005
field stddev 6.5047815602649e-006
field sum 0.229991715572
field sqrsum 3.4888563373421e-006
field min 1.2992e-006
field max 5.4690509e-005
statistic Basic.rack[7].node[0].app 	hops
field count 20024
field mean 5.7483020375549
field stddev 1.3589144445939
field sum 115104
field sqrsum 698628
field min 3
field max 8
statistic Basic.rack[7].node[1].app 	throughput
field count 20068
field mean 10034.5
field stddev 5793.2769368179
field sum 201372346
field sqrsum 2694160617134
field min 1
field max 20068
statistic Basic.rack[7].node[1].app 	"End-to-End Delay"
field count 20068
field mean 1.1535790789316e-005
field stddev 6.5357290368288e-006
field sum 0.23150024956
field sqrsum 3.5277154829764e-006
field min 1.2992e-006
field max 5.3575194e-005
statistic Basic.rack[7].node[1].app 	hops
field count 20068
field mean 5.7537372932031
field stddev 1.3526710341934
field sum 115466
field sqrsum 701078
field min 3
field max 8
statistic Basic.rack[7].node[2].app 	throughput
field count 20046
field mean 10023.5
field stddev 5786.9260838549
field sum 200931081
field sqrsum 2685309943511
field min 1
field max 20046
statistic Basic.rack[7].node[2].app 	"End-to-End Delay"
field count 20046
field mean 1.1401130009977e-005
field stddev 6.4322151504211e-006
field sum 0.22854705218
field sqrsum 3.4350242927556e-006
field min 1.2992e-006
field max 4.7878177e-005
statistic Basic.rack[7].node[2].app 	hops
field count 20046
field mean 5.7576573880076
field stddev 1.3649699293406
field sum 115418
field sqrsum 701884
field min 3
field max 8
statistic Basic.rack[7].node[3].app 	throughput
field count 20072
field mean 10036.5
field stddev 5794.4316373567
field sum 201452628
field sqrsum 2695771917020
field min 1
field max 20072
statistic Basic.rack[7].node[3].app 	"End-to-End Delay"
field count 20072
field mean 1.1421519566062e-005
field stddev 6.5299524610164e-006
field sum 0.22925274073
field sqrsum 3.4742477065028e-006
field min 1.2992e-006
field max 6.0501818e-005
statistic Basic.rack[7].node[3].app 	hops
field count 20072
field mean 5.7500996412914
field stddev 1.3614129643004
field sum 115416
field sqrsum 700854
field min 3
field max 8
statistic Basic.rack[7].node[4].app 	throughput
field count 19824
field mean 9912.5
field stddev 5722.8402039547
field sum 196505400
field sqrsum 2597080868200
field min 1
field max 19824
statistic Basic.rack[7].node[4].app 	"End-to-End Delay"
field count 19824
field mean 1.152685517272e-005
field stddev 6.4789946763105e-006
field sum 0.228508376944
field sqrsum 3.4661004122531e-006
field min 1.2992e-006
field max 4.7372743e-005
statistic Basic.rack[7].node[4].app 	hops
field count 19824
field mean 5.7391545601291
field stddev 1.3605478907425
field sum 113773
field sqrsum 689655
field min 3
field max 8
statistic Basic.rack[7].node[5].app 	throughput
field count 19982
field mean 9991.5
field stddev 5768.450875235
field sum 199650153
field sqrsum 2659672788215
field min 1
field max 19982
statistic Basic.rack[7].node[5].app 	"End-to-End Delay"
field count 19982
field mean 1.1430988968522e-005
field stddev 6.4922983204947e-006
field sum 0.228414021569
field sqrsum 3.4531960616447e-006
field min 1.2992e-006
field max 5.0163112e-005
statistic Basic.rack[7].node[5].app 	hops
field count 19982
field mean 5.7422179961966
field stddev 1.370708993882
field sum 114741
field sqrsum 696409
field min 3
field max 8
statistic Basic.rack[7].node[6].app 	throughput
field count 20113
field mean 10057
field stddev 5806.2673178787
field sum 202276441
field sqrsum 2712324797369
field min 1
field max 20113
statistic Basic.rack[7].node[6].app 	"End-to-End Delay"
field count 20113
field mean 1.1517741038085e-005
field stddev 6.5462848002499e-006
field sum 0.231656325499
field sqrsum 3.5300340912562e-006
field min 1.2992e-006
field max 5.1335001e-005
statistic Basic.rack[7].node[6].app 	hops
field count 20113
field mean 5.7348978272759
field stddev 1.3616683052564
field sum 115346
field sqrsum 698788
field min 3
field max 8
statistic Basic.rack[7].node[7].app 	throughput
field count 19938
field mean 9969.5
field stddev 5755.7491693089
field sum 198771891
field sqrsum 2642142232469
field min 1
field max 19938
statistic Basic.rack[7].node[7].app 	"End-to-End Delay"
field count 19938
field mean 1.1392737918196e-005
field stddev 6.4237809947458e-006
field sum 0.227148408613
field sqrsum 3.4105418406095e-006
field min 1.2992e-006
field max 4.8473977e-005
statistic Basic.rack[7].node[7].app 	hops
field count 19938
field mean 5.758852442572
field stddev 1.358396346872
field sum 114820
field sqrsum 698020
field min 3
field max 8
statistic Basic.rack[7].node[8].app 	throughput
field count 20010
field mean 10005.5
field stddev 5776.5337790062
field sum 200210055
field sqrsum 2670868870385
field min 1
field max 20010
statistic Basic.rack[7].node[8].app 	"End-to-End Delay"
field count 20010
field mean 1.14412816999e-005
field stddev 6.5214358035405e-006
field sum 0.228940046815
field sqrsum 3.4703328289171e-006
field min 1.2992e-006
field max 5.1550931e-005
statistic Basic.rack[7].node[8].app 	hops
field count 20010
field mean 5.764067966017
field stddev 1.3575083684242
field sum 115339
field sqrsum 701695
field min 3
field max 8
statistic Basic.rack[7].node[9].app 	throughput
field count 19832
field mean 9916.5
field stddev 5725.1496050322
field sum 196664028
field sqrsum 2600226223540
field min 1
field max 19832
statistic Basic.rack[7].node[9].app 	"End-to-End Delay"
field count 19832
field mean 1.1478466007513e-005
field stddev 6.5507590407569e-006
field sum 0.227640937861
field sqrsum 3.4639654443193e-006
field min 1.2992e-006
field max 5.6824352e-005
statistic Basic.rack[7].node[9].app 	hops
field count 19832
field mean 5.7512101653893
field stddev 1.3610202518944
field sum 114058
field sqrsum 692706
field min 3
field max 8
statistic Basic.rack[7].eps.queue[0] 	dropsum
field count 0
field mean nan
field stddev nan
field sum 0
field sqrsum 0
field min nan
field max nan
statistic Basic.rack[7].eps.queue[1] 	dropsum
field count 0
field mean nan
field stddev nan
field sum 0
field sqrsum 0
field min nan
field max nan
statistic Basic.rack[7].eps.queue[2] 	dropsum
field count 0
field mean nan
field stddev nan
field sum 0
field sqrsum 0
field min nan
field max nan
statistic Basic.rack[7].eps.queue[3] 	dropsum
field count 0
field mean nan
field stddev nan
field sum 0
field sqrsum 0
field min nan
field max nan
statistic Basic.rack[8].node[0].app 	throughput
field count 19828
field mean 9914.5
field stddev 5723.9949044934
field sum 196584706
field sqrsum 2598653228614
field min 1
field max 19828
statistic Basic.rack[8].node[0].app 	"End-to-End Delay"
field count 19828
field mean 1.6288541475641e-005
field stddev 5.8357824044776e-006
field sum 0.322969200379
field sqrsum 5.9359325915409e-006
field min 9.4416e-006
field max 6.0977765e-005
statistic Basic.rack[8].node[0].app 	hops
field count 19828
field mean 5.8163707887835
field stddev 0.90018312225996
field sum 115327
field sqrsum 686851
field min 4
field max 7
statistic Basic.rack[8].node[1].app 	throughput
field count 19869
field mean 9935
field stddev 5735.8305850156
field sum 197398515
field sqrsum 2614806529195
field min 1
field max 19869
statistic Basic.rack[8].node[1].app 	"End-to-End Delay"
field count 19869
field mean 1.6239167707333e-005
field stddev 5.8594125755202e-006
field sum 0.322656023177
field sqrsum 5.9217876682793e-006
field min 9.4416e-006
field max 5.5671197e-005
statistic Basic.rack[8].node[1].app 	hops
field count 19869
field mean 5.8389450903417
field stddev 0.89858803322069
field sum 116014
field sqrsum 693442
field min 4
field max 7
statistic Basic.rack[8].node[2].app 	throughput
field count 20020
field mean 10010.5
field stddev 5779.4205303531
field sum 200410210
field sqrsum 2674875072870
field min 1
field max 20020
statistic Basic.rack[8].node[2].app 	"End-to-End Delay"
field count 20020
field mean 1.6239502162088e-005
field stddev 5.8184373703011e-006
field sum 0.325114833285
field sqrsum 5.9574305367562e-006
field min 9.4416e-006
field max 5.666194e-005
statistic Basic.rack[8].node[2].app 	hops
field count 20020
field mean 5.8358141858142
field stddev 0.90094114748683
field sum 116833
field sqrsum 698065
field min 4
field max 7
statistic Basic.rack[8].node[3].app 	throughput
field count 20284
field mean 10142.5
field stddev 5855.6307659096
field sum 205730470
field sqrsum 2782093145810
field min 1
field max 20284
statistic Basic.rack[8].node[3].app 	"End-to-End Delay"
field count 20284
field mean 1.6257182360876e-005
field stddev 5.8591052203988e-006
field sum 0.329760687008
field sqrsum 6.0572770430683e-006
field min 9.4416e-006
field max 6.023137e-005
statistic Basic.rack[8].node[3].app 	hops
field count 20284
field mean 5.8365706961152
field stddev 0.89643225248617
field sum 118389
field sqrsum 707285
field min 4
field max 7
statistic Basic.rack[8].node[4].app 	throughput
field count 19927
field mean 9964
field stddev 5752.5737428274
field sum 198552628
field sqrsum 2637771662980
field min 1
field max 19927
statistic Basic.rack[8].node[4].app 	"End-to-End Delay"
field count 19927
field mean 1.6304056590405e-005
field stddev 5.9160097345112e-006
field sum 0.324890935677
field sqrsum 5.9944336858968e-006
field min 9.4416e-006
field max 5.1366841e-005
statistic Basic.rack[8].node[4].app 	hops
field count 19927
field mean 5.8262156872585
field stddev 0.89213457022298
field sum 116099
field sqrsum 692277
field min 4
field max 7
statistic Basic.rack[8].node[5].app 	throughput
field count 19896
field mean 9948.5
field stddev 5743.6248136521
field sum 197935356
field sqrsum 2625480540436
field min 1
field max 19896
statistic Basic.rack[8].node[5].app 	"End-to-End Delay"
field count 19896
field mean 1.6303446087354e-005
field stddev 5.8897016424479e-006
field sum 0.324373363354
field sqrsum 5.9785330488859e-006
field min 9.4416e-006
field max 5.0674905e-005
statistic Basic.rack[8].node[5].app 	hops
field count 19896
field mean 5.8312223562525
field stddev 0.90190507016071
field sum 116018
field sqrsum 692710
field min 4
field max 7
statistic Basic.rack[8].node[6].app 	throughput
field count 19988
field mean 9994.5
field stddev 5770.1829260432
field sum 199770066
field sqrsum 2662069309494
field min 1
field max 19988
statistic Basic.rack[8].node[6].app 	"End-to-End Delay"
field count 19988
field mean 1.6285557242796e-005
field stddev 5.892305824696e-006
field sum 0.325515718169
field sqrsum 5.9951388698229e-006
field min 9.4416e-006
field max 5.8854057e-005
statistic Basic.rack[8].node[6].app 	hops
field count 19988
field mean 5.8250950570342
field stddev 0.89685530778805
field sum 116432
field sqrsum 694304
field min 4
field max 7
statistic Basic.rack[8].node[7].app 	throughput
field count 20171
field mean 10086
field stddev 5823.0104756904
field sum 203444706
field sqrsum 2735856591386
field min 1
field max 20171
statistic Basic.rack[8].node[7].app 	"End-to-End Delay"
field count 20171
field mean 1.6242029324724e-005
field stddev 5.8326202977395e-006
field sum 0.327617973509
field sqrsum 6.0073532319133e-006
field min 9.4416e-006
field max 6.1978601e-005
statistic Basic.rack[8].node[7].app 	hops
field count 20171
field mean 5.8196916365079
field stddev 0.90169285186617
field sum 117389
field sqrsum 699567
field min 4
field max 7
statistic Basic.rack[8].node[8].app 	throughput
field count 19753
field mean 9877
field stddev 5702.3442693919
field sum 195100381
field sqrsum 2569276917389
field min 1
field max 19753
statistic Basic.rack[8].node[8].app 	"End-to-End Delay"
field count 19753
field mean 1.6226033799879e-005
field stddev 5.7686133377764e-006
field sum 0.320512845649
field sqrsum 5.8579375924509e-006
field min 9.4416e-006
field max 5.2746722e-005
statistic Basic.rack[8].node[8].app 	hops
field count 19753
field mean 5.8399736748848
field stddev 0.89780448607491
field sum 115357
field sqrsum 689603
field min 4
field max 7
statistic Basic.rack[8].node[9].app 	throughput
field count 19983
field mean 9992
field stddev 5768.7395503697
field sum 199670136
field sqrsum 2660072108504
field min 1
field max 19983
statistic Basic.rack[8].node[9].app 	"End-to-End Delay"
field count 19983
field mean 1.613712463579e-005
field stddev 5.8039443934506e-006
field sum 0.322468161597
field sqrsum 5.876817981341e-006
field min 9.4416e-006
field max 5.2141494e-005
statistic Basic.rack[8].node[9].app 	hops
field count 19983
field mean 5.8408146924886
field stddev 0.89964437465093
field sum 116717
field sqrsum 697895
field min 4
field max 7
statistic Basic.rack[8].eps.queue[0] 	dropsum
field count 0
field mean nan
field stddev nan
field sum 0
field sqrsum 0
field min nan
field max nan
statistic Basic.rack[8].eps.queue[1] 	dropsum
field count 0
field mean nan
field stddev nan
field sum 0
field sqrsum 0
field min nan
field max nan
statistic Basic.rack[8].eps.queue[2] 	dropsum
field count 0
field mean nan
field stddev nan
field sum 0
field sqrsum 0
field min nan
field max nan
statistic Basic.rack[8].eps.queue[3] 	dropsum
field count 0
field mean nan
field stddev nan
field sum 0
field sqrsum 0
field min nan
field max nan
statistic Basic.rack[9].node[0].app 	throughput
field count 20145
field mean 10073
field stddev 5815.5049221886
field sum 202920585
field sqrsum 2725291096745
field min 1
field max 20145
statistic Basic.rack[9].node[0].app 	"End-to-End Delay"
field count 20145
field mean 1.3963661061553e-005
field stddev 8.3263934342004e-006
field sum 0.28129795208498
field sqrsum 5.3245091638229e-006
field min 8.496e-007
field max 5.6310471e-005
statistic Basic.rack[9].node[0].app 	hops
field count 20145
field mean 5.4170761975676
field stddev 0.86750665774561
field sum 109127
field sqrsum 606309
field min 4
field max 7
statistic Basic.rack[9].node[1].app 	throughput
field count 20040
field mean 10020.5
field stddev 5785.1940330468
field sum 200810820
field sqrsum 2682899492140
field min 1
field max 20040
statistic Basic.rack[9].node[1].app 	"End-to-End Delay"
field count 20040
field mean 1.4071823588672e-005
field stddev 8.3758744795839e-006
field sum 0.28199934471698
field sqrsum 5.3740865525919e-006
field min 8.496e-007
field max 5.4855456e-005
statistic Basic.rack[9].node[1].app 	hops
field count 20040
field mean 5.4181636726547
field stddev 0.85256789801006
field sum 108580
field sqrsum 602870
field min 4
field max 7
statistic Basic.rack[9].node[2].app 	throughput
field count 20065
field mean 10033
field stddev 5792.4109114139
field sum 201312145
field sqrsum 2692952563665
field min 1
field max 20065
statistic Basic.rack[9].node[2].app 	"End-to-End Delay"
field count 20065
field mean 1.4047927754248e-005
field stddev 8.2989614612186e-006
field sum 0.28187167038898
field sqrsum 5.3415759450148e-006
field min 8.496e-007
field max 5.7705363e-005
statistic Basic.rack[9].node[2].app 	hops
field count 20065
field mean 5.4206827809619
field stddev 0.86550777030226
field sum 108766
field sqrsum 604616
field min 4
field max 7
statistic Basic.rack[9].node[3].app 	throughput
field count 20117
field mean 10059
field stddev 5807.4220184175
field sum 202356903
field sqrsum 2713943330735
field min 1
field max 20117
statistic Basic.rack[9].node[3].app 	"End-to-End Delay"
field count 20117
field mean 1.4066933330764e-005
field stddev 8.3603699878675e-006
field sum 0.28298449781498
field sqrsum 5.3867477022986e-006
field min 8.496e-007
field max 5.5116301e-005
statistic Basic.rack[9].node[3].app 	hops
field count 20117
field mean 5.4126857881394
field stddev 0.86662454864556
field sum 108887
field sqrsum 604479
field min 4
field max 7
statistic Basic.rack[9].node[4].app 	throughput
field count 19982
field mean 9991.5
field stddev 5768.450875235
field sum 199650153
field sqrsum 2659672788215
field min 1
field max 19982
statistic Basic.rack[9].node[4].app 	"End-to-End Delay"
field count 19982
field mean 1.4078858137573e-005
field stddev 8.3634189355381e-006
field sum 0.28132374330498
field sqrsum 5.3583236097985e-006
field min 8.496e-007
field max 5.3096515e-005
statistic Basic.rack[9].node[4].app 	hops
field count 19982
field mean 5.41977780002
field stddev 0.86136522057293
field sum 108298
field sqrsum 601776
field min 4
field max 7
statistic Basic.rack[9].node[5].app 	throughput
field count 20163
field mean 10082
field stddev 5820.7010746129
field sum 203283366
field sqrsum 2732602766894
field min 1
field max 20163
statistic Basic.rack[9].node[5].app 	"End-to-End Delay"
field count 20163
field mean 1.4010523311857e-005
field stddev 8.2685034360865e-006
field sum 0.28249418153698
field sqrsum 5.3363299374892e-006
field min 8.496e-007
field max 4.7515249e-005
statistic Basic.rack[9].node[5].app 	hops
field count 20163
field mean 5.4268214055448
field stddev 0.86302133347651
field sum 109421
field sqrsum 608825
field min 4
field max 7
statistic Basic.rack[9].node[6].app 	throughput
field count 20017
field mean 10009
field stddev 5778.554504949
field sum 200350153
field sqrsum 2673672791785
field min 1
field max 20017
statistic Basic.rack[9].node[6].app 	"End-to-End Delay"
field count 20017
field mean 1.413580445721e-005
field stddev 8.2979757100961e-006
field sum 0.28295639781998
field sqrsum 5.3780460296209e-006
field min 8.496e-007
field max 5.6318978e-005
statistic Basic.rack[9].node[6].app 	hops
field count 20017
field mean 5.4205924963781
field stddev 0.85557932178668
field sum 108504
field sqrsum 602808
field min 4
field max 7
statistic Basic.rack[9].node[7].app 	throughput
field count 19835
field mean 9918
field stddev 5726.0156304362
field sum 196723530
field sqrsum 2601406386210
field min 1
field max 19835
statistic Basic.rack[9].node[7].app 	"End-to-End Delay"
field count 19835
field mean 1.4058553996924e-005
field stddev 8.3973002942199e-006
field sum 0.27885141852898
field sqrsum 5.3188353368641e-006
field min 8.496e-007
field max 6.5495634e-005
statistic Basic.rack[9].node[7].app 	hops
field count 19835
field mean 5.4243004789513
field stddev 0.86268851837677
field sum 107591
field sqrsum 598367
field min 4
field max 7
statistic Basic.rack[9].node[8].app 	throughput
field count 19962
field mean 9981.5
field stddev 5762.6773725413
field sum 199250703
field sqrsum 2651694772425
field min 1
field max 19962
statistic Basic.rack[9].node[8].app 	"End-to-End Delay"
field count 19962
field mean 1.3910046522542e-005
field stddev 8.368937254939e-006
field sum 0.27767234868298
field sqrsum 5.2604859784254e-006
field min 8.496e-007
field max 5.4020564e-005
statistic Basic.rack[9].node[8].app 	hops
field count 19962
field mean 5.4150886684701
field stddev 0.85607116376843
field sum 108096
field sqrsum 599978
field min 4
field max 7
statistic Basic.rack[9].node[9].app 	throughput
field count 20041
field mean 10021
field stddev 5785.4827081815
field sum 200830861
field sqrsum 2683301133821
field min 1
field max 20041
statistic Basic.rack[9].node[9].app 	"End-to-End Delay"
field count 20041
field mean 1.4129445239807e-005
field stddev 8.2906427052291e-006
field sum 0.28316821205098
field sqrsum 5.3784542654025e-006
field min 8.496e-007
field max 6.0388686e-005
statistic Basic.rack[9].node[9].app 	hops
field count 20041
field mean 5.4215358515044
field stddev 0.85427377868377
field sum 108653
field sqrsum 603691
field min 4
field max 7
statistic Basic.rack[9].eps.queue[0] 	dropsum
field count 0
field mean nan
field stddev nan
field sum 0
field sqrsum 0
field min nan
field max nan
statistic Basic.rack[9].eps.queue[1] 	dropsum
field count 0
field mean nan
field stddev nan
field sum 0
field sqrsum 0
field min nan
field max nan
statistic Basic.rack[9].eps.queue[2] 	dropsum
field count 0
field mean nan
field stddev nan
field sum 0
field sqrsum 0
field min nan
field max nan
statistic Basic.rack[9].eps.queue[3] 	dropsum
field count 0
field mean nan
field stddev nan
field sum 0
field sqrsum 0
field min nan
field max nan
statistic Basic.rack[10].node[0].app 	throughput
field count 20152
field mean 10076.5
field stddev 5817.5256481314
field sum 203061628
field sqrsum 2728132972180
field min 1
field max 20152
statistic Basic.rack[10].node[0].app 	"End-to-End Delay"
field count 20152
field mean 1.506921916177e-005
field stddev 5.3977388795921e-006
field sum 0.30367490454799
field sqrsum 5.1632548641455e-006
field min 8.992e-006
field max 4.6555148e-005
statistic Basic.rack[10].node[0].app 	hops
field count 20152
field mean 5.3357979356888
field stddev 1.0318402620058
field sum 107527
field sqrsum 595197
field min 3
field max 7
statistic Basic.rack[10].node[1].app 	throughput
field count 20081
field mean 10041
field stddev 5797.0297135688
field sum 201633321
field sqrsum 2699399690441
field min 1
field max 20081
statistic Basic.rack[10].node[1].app 	"End-to-End Delay"
field count 20081
field mean 1.5034557517952e-005
field stddev 5.3202985981426e-006
field sum 0.30190894951799
field sqrsum 5.1074434563545e-006
field min 8.992e-006
field max 4.7527209e-005
statistic Basic.rack[10].node[1].app 	hops
field count 20081
field mean 5.3322543698023
field stddev 1.0296210294941
field sum 107077
field sqrsum 592249
field min 3
field max 7
statistic Basic.rack[10].node[2].app 	throughput
field count 20032
field mean 10016.5
field stddev 5782.8846319693
field sum 200650528
field sqrsum 2679687801440
field min 1
field max 20032
statistic Basic.rack[10].node[2].app 	"End-to-End Delay"
field count 20032
field mean 1.5050261264476e-005
field stddev 5.4454555721168e-006
field sum 0.30148683364999
field sqrsum 5.1314345845681e-006
field min 8.992e-006
field max 5.2937153e-005
statistic Basic.rack[10].node[2].app 	hops
field count 20032
field mean 5.3289736421725
field stddev 1.0338020253566
field sum 106750
field sqrsum 590276
field min 3
field max 7
statistic Basic.rack[10].node[3].app 	throughput
field count 19781
field mean 9891
field stddev 5710.4271731631
field sum 195653871
field sqrsum 2580218032791
field min 1
field max 19781
statistic Basic.rack[10].node[3].app 	"End-to-End Delay"
field count 19781
field mean 1.5083085800212e-005
field stddev 5.3421612598873e-006
field sum 0.29835852021399
field sqrsum 5.0646623870209e-006
field min 8.992e-006
field max 5.3090892e-005
statistic Basic.rack[10].node[3].app 	hops
field count 19781
field mean 5.3389110762853
field stddev 1.02747740374
field sum 105609
field sqrsum 584719
field min 3
field max 7
statistic Basic.rack[10].node[4].app 	throughput
field count 19908
field mean 9954.5
field stddev 5747.0889152683
field sum 198174186
field sqrsum 2630233854654
field min 1
field max 19908
statistic Basic.rack[10].node[4].app 	"End-to-End Delay"
field count 19908
field mean 1.5043614399437e-005
field stddev 5.3834553130232e-006
field sum 0.29948827546399
field sqrsum 5.0823226674061e-006
field min 8.992e-006
field max 4.9322925e-005
statistic Basic.rack[10].node[4].app 	hops
field count 19908
field mean 5.3189170182841
field stddev 1.0301184944799
field sum 105889
field sqrsum 584339
field min 3
field max 7
statistic Basic.rack[10].node[5].app 	throughput
field count 19916
field mean 9958.5
field stddev 5749.3983163458
field sum 198333486
field sqrsum 2633405915946
field min 1
field max 19916
statistic Basic.rack[10].node[5].app 	"End-to-End Delay"
field count 19916
field mean 1.510420954057e-005
field stddev 5.397062249296e-006
field sum 0.30081543720999
field sqrsum 5.123669111235e-006
field min 8.992e-006
field max 5.2019058e-005
statistic Basic.rack[10].node[5].app 	hops
field count 19916
field mean 5.3452500502109
field stddev 1.0173997332221
field sum 106456
field sqrsum 589648
field min 3
field max 7
statistic Basic.rack[10].node[6].app 	throughput
field count 20004
field mean 10002.5
field stddev 5774.8017281981
field sum 200090010
field sqrsum 2668467070030
field min 1
field max 20004
statistic Basic.rack[10].node[6].app 	"End-to-End Delay"
field count 20004
field mean 1.505723434653e-005
field stddev 5.400301940521e-006
field sum 0.30120491586799
field sqrsum 5.1186657153104e-006
field min 8.992e-006
field max 5.0453533e-005
statistic Basic.rack[10].node[6].app 	hops
field count 20004
field mean 5.3204859028194
field stddev 1.0262846850718
field sum 106431
field sqrsum 587333
field min 3
field max 7
statistic Basic.rack[10].node[7].app 	throughput
field count 20087
field mean 10044
field stddev 5798.7617643769
field sum 201753828
field sqrsum 2701820013300
field min 1
field max 20087
statistic Basic.rack[10].node[7].app 	"End-to-End Delay"
field count 20087
field mean 1.5009010141434e-005
field stddev 5.3639938462177e-006
field sum 0.30148598671099
field sqrsum 5.1029292606693e-006
field min 8.992e-006
field max 5.8007587e-005
statistic Basic.rack[10].node[7].app 	hops
field count 20087
field mean 5.331507940459
field stddev 1.0180460866462
field sum 107094
field sqrsum 591790
field min 3
field max 7
statistic Basic.rack[10].node[8].app 	throughput
field count 19800
field mean 9900.5
field stddev 5715.9120007222
field sum 196029900
field sqrsum 2587660023300
field min 1
field max 19800
statistic Basic.rack[10].node[8].app 	"End-to-End Delay"
field count 19800
field mean 1.5016280863535e-005
field stddev 5.3746871297034e-006
field sum 0.29732236109799
field sqrsum 5.0366149764906e-006
field min 8.992e-006
field max 5.3745134e-005
statistic Basic.rack[10].node[8].app 	hops
field count 19800
field mean 5.3417171717172
field stddev 1.0236345782028
field sum 105766
field sqrsum 585718
field min 3
field max 7
statistic Basic.rack[10].node[9].app 	throughput
field count 19975
field mean 9988
field stddev 5766.4301492923
field sum 199510300
field sqrsum 2656878665100
field min 1
field max 19975
statistic Basic.rack[10].node[9].app 	"End-to-End Delay"
field count 19975
field mean 1.5051288154793e-005
field stddev 5.4462393253508e-006
field sum 0.30064948089199
field sqrsum 5.1176212266818e-006
field min 8.992e-006
field max 6.1987082e-005
statistic Basic.rack[10].node[9].app 	hops
field count 19975
field mean 5.3325156445557
field stddev 1.0232950831106
field sum 106517
field sqrsum 588919
field min 3
field max 7
statistic Basic.rack[10].eps.queue[0] 	dropsum
field count 0
field mean nan
field stddev nan
field sum 0
field sqrsum 0
field min nan
field max nan
statistic Basic.rack[10].eps.queue[1] 	dropsum
field count 0
field mean nan
field stddev nan
field sum 0
field sqrsum 0
field min nan
field max nan
statistic Basic.rack[10].eps.queue[2] 	dropsum
field count 0
field mean nan
field stddev nan
field sum 0
field sqrsum 0
field min nan
field max nan
statistic Basic.rack[10].eps.queue[3] 	dropsum
field count 0
field mean nan
field stddev nan
field sum 0
field sqrsum 0
field min nan
field max nan
statistic Basic.rack[11].node[0].app 	throughput
field count 19927
field mean 9964
field stddev 5752.5737428274
field sum 198552628
field sqrsum 2637771662980
field min 1
field max 19927
statistic Basic.rack[11].node[0].app 	"End-to-End Delay"
field count 19927
field mean 1.5107523468811e-005
field stddev 5.3995737731782e-006
field sum 0.30104762016299
field sqrsum 5.1290344261089e-006
field min 8.992e-006
field max 6.2673635e-005
statistic Basic.rack[11].node[0].app 	hops
field count 19927
field mean 5.336377778893
field stddev 1.0258199264655
field sum 106338
field sqrsum 588428
field min 3
field max 7
statistic Basic.rack[11].node[1].app 	throughput
field count 20058
field mean 10029.5
field stddev 5790.3901854711
field sum 201171711
field sqrsum 2690135176729
field min 1
field max 20058
statistic Basic.rack[11].node[1].app 	"End-to-End Delay"
field count 20058
field mean 1.5091590578921e-005
field stddev 5.4325362868012e-006
field sum 0.30270712383199
field sqrsum 5.1602631980223e-006
field min 8.992e-006
field max 6.4177072e-005
statistic Basic.rack[11].node[1].app 	hops
field count 20058
field mean 5.3491873566657
field stddev 1.0205616988108
field sum 107294
field sqrsum 594826
field min 3
field max 7
statistic Basic.rack[11].node[2].app 	throughput
field count 20203
field mean 10102
field stddev 5832.2480800003
field sum 204090706
field sqrsum 2748897719114
field min 1
field max 20203
statistic Basic.rack[11].node[2].app 	"End-to-End Delay"
field count 20203
field mean 1.5096381011681e-005
field stddev 5.3835148936476e-006
field sum 0.30499218557899
field sqrsum 5.1897773022756e-006
field min 8.992e-006
field max 6.1684193e-005
statistic Basic.rack[11].node[2].app 	hops
field count 20203
field mean 5.329060040588
field stddev 1.0268740392832
field sum 107663
field sqrsum 595045
field min 3
field max 7
statistic Basic.rack[11].node[3].app 	throughput
field count 20006
field mean 10003.5
field stddev 5775.3790784675
field sum 200130021
field sqrsum 2669267510091
field min 1
field max 20006
statistic Basic.rack[11].node[3].app 	"End-to-End Delay"
field count 20006
field mean 1.5104032351894e-005
field stddev 5.4137578941438e-006
field sum 0.30217127123199
field sqrsum 5.1503266911017e-006
field min 8.992e-006
field max 5.455994e-005
statistic Basic.rack[11].node[3].app 	hops
field count 20006
field mean 5.3253523942817
field stddev 1.0217157567098
field sum 106539
field sqrsum 588241
field min 3
field max 7
statistic Basic.rack[11].node[4].app 	throughput
field count 19960
field mean 9980.5
field stddev 5762.100022272
field sum 199210780
[...]
field sum 0.320203118353
field sqrsum 5.8567081588635e-006
field min 9.4416e-006
field max 4.5143957e-005
statistic Basic.rack[13].node[1].app 	hops
field count 19748
field mean 5.8395280534738
field stddev 0.90251148826568
field sum 115319
field sqrsum 689493
field min 4
field max 7
statistic Basic.rack[13].node[2].app 	throughput
field count 19978
field mean 9989.5
field stddev 5767.2961746963
field sum 199570231
field sqrsum 2658075906689
field min 1
field max 19978
statistic Basic.rack[13].node[2].app 	"End-to-End Delay"
field count 19978
field mean 1.6259879842777e-005
field stddev 5.8766607901008e-006
field sum 0.324839879499
field sqrsum 5.9717659413671e-006
field min 9.4416e-006
field max 5.6225593e-005
statistic Basic.rack[13].node[2].app 	hops
field count 19978
field mean 5.8286615276804
field stddev 0.896688395181
field sum 116445
field sqrsum 694781
field min 4
field max 7
statistic Basic.rack[13].node[3].app 	throughput
field count 20120
field mean 10060.5
field stddev 5808.2880438215
field sum 202417260
field sqrsum 2715157653220
field min 1
field max 20120
statistic Basic.rack[13].node[3].app 	"End-to-End Delay"
field count 20120
field mean 1.6307773585338e-005
field stddev 5.8795750114024e-006
field sum 0.328112404537
field sqrsum 6.0462846089e-006
field min 9.4416e-006
field max 5.2318255e-005
statistic Basic.rack[13].node[3].app 	hops
field count 20120
field mean 5.832902584493
field stddev 0.8919513663177
field sum 117358
field sqrsum 700544
field min 4
field max 7
statistic Basic.rack[13].node[4].app 	throughput
field count 19917
field mean 9959
field stddev 5749.6869914805
field sum 198353403
field sqrsum 2633802602835
field min 1
field max 19917
statistic Basic.rack[13].node[4].app 	"End-to-End Delay"
field count 19917
field mean 1.6199654787719e-005
field stddev 5.8090806849761e-006
field sum 0.322648524407
field sqrsum 5.8988684661056e-006
field min 9.4416e-006
field max 5.6759809e-005
statistic Basic.rack[13].node[4].app 	hops
field count 19917
field mean 5.8351157302807
field stddev 0.89884329213725
field sum 116218
field sqrsum 694236
field min 4
field max 7
statistic Basic.rack[13].node[5].app 	throughput
field count 19869
field mean 9935
field stddev 5735.8305850156
field sum 197398515
field sqrsum 2614806529195
field min 1
field max 19869
statistic Basic.rack[13].node[5].app 	"End-to-End Delay"
field count 19869
field mean 1.6319695671096e-005
field stddev 5.8230127619378e-006
field sum 0.324256033289
field sqrsum 5.9654335482604e-006
field min 9.4416e-006
field max 5.3364102e-005
statistic Basic.rack[13].node[5].app 	hops
field count 19869
field mean 5.8254064119986
field stddev 0.89287650317986
field sum 115745
field sqrsum 690101
field min 4
field max 7
statistic Basic.rack[13].node[6].app 	throughput
field count 20230
field mean 10115.5
field stddev 5840.0423086367
field sum 204636565
field sqrsum 2759933352155
field min 1
field max 20230
statistic Basic.rack[13].node[6].app 	"End-to-End Delay"
field count 20230
field mean 1.6340444898221e-005
field stddev 5.8843394731472e-006
field sum 0.330567200291
field sqrsum 6.102053370506e-006
field min 9.4416e-006
field max 5.605593e-005
statistic Basic.rack[13].node[6].app 	hops
field count 20230
field mean 5.8253583786456
field stddev 0.90083727351495
field sum 117847
field sqrsum 702917
field min 4
field max 7
statistic Basic.rack[13].node[7].app 	throughput
field count 20022
field mean 10011.5
field stddev 5779.9978806224
field sum 200450253
field sqrsum 2675676793795
field min 1
field max 20022
statistic Basic.rack[13].node[7].app 	"End-to-End Delay"
field count 20022
field mean 1.6248879518879e-005
field stddev 5.850725824971e-006
field sum 0.325335065727
field sqrsum 5.9716689906906e-006
field min 9.4416e-006
field max 5.2444509e-005
statistic Basic.rack[13].node[7].app 	hops
field count 20022
field mean 5.831335530916
field stddev 0.89567218573407
field sum 116755
field sqrsum 696899
field min 4
field max 7
statistic Basic.rack[13].node[8].app 	throughput
field count 19840
field mean 9920.5
field stddev 5727.4590061097
field sum 196822720
field sqrsum 2603374117440
field min 1
field max 19840
statistic Basic.rack[13].node[8].app 	"End-to-End Delay"
field count 19840
field mean 1.6229195217036e-005
field stddev 5.7725709584212e-006
field sum 0.321987233106
field sqrsum 5.8866802382201e-006
field min 9.4416e-006
field max 4.9631594e-005
statistic Basic.rack[13].node[8].app 	hops
field count 19840
field mean 5.8353830645161
field stddev 0.8980592762552
field sum 115774
field sqrsum 691586
field min 4
field max 7
statistic Basic.rack[13].node[9].app 	throughput
field count 20003
field mean 10002
field stddev 5774.5130530634
field sum 200070006
field sqrsum 2668066910014
field min 1
field max 20003
statistic Basic.rack[13].node[9].app 	"End-to-End Delay"
field count 20003
field mean 1.6273861564615e-005
field stddev 5.8656550771106e-006
field sum 0.325526052877
field sqrsum 5.9857529216876e-006
field min 9.4416e-006
field max 5.3431582e-005
statistic Basic.rack[13].node[9].app 	hops
field count 20003
field mean 5.8328750687397
field stddev 0.89879601930105
field sum 116675
field sqrsum 696709
field min 4
field max 7
statistic Basic.rack[13].eps.queue[0] 	dropsum
field count 0
field mean nan
field stddev nan
field sum 0
field sqrsum 0
field min nan
field max nan
statistic Basic.rack[13].eps.queue[1] 	dropsum
field count 0
field mean nan
field stddev nan
field sum 0
field sqrsum 0
field min nan
field max nan
statistic Basic.rack[13].eps.queue[2] 	dropsum
field count 0
field mean nan
field stddev nan
field sum 0
field sqrsum 0
field min nan
field max nan
statistic Basic.rack[13].eps.queue[3] 	dropsum
field count 0
field mean nan
field stddev nan
field sum 0
field sqrsum 0
field min nan
field max nan
statistic Basic.rack[14].node[0].app 	throughput
field count 20184
field mean 10092.5
field stddev 5826.7632524413
field sum 203707020
field sqrsum 2741149563460
field min 1
field max 20184
statistic Basic.rack[14].node[0].app 	"End-to-End Delay"
field count 20184
field mean 1.1424961329964e-005
field stddev 6.47812638324e-006
field sum 0.230601419484
field sqrsum 3.4816145292071e-006
field min 1.2992e-006
field max 5.0633081e-005
statistic Basic.rack[14].node[0].app 	hops
field count 20184
field mean 5.7521304003171
field stddev 1.3621192294229
field sum 116101
field sqrsum 705275
field min 3
field max 8
statistic Basic.rack[14].node[1].app 	throughput
field count 19994
field mean 9997.5
field stddev 5771.9149768513
field sum 199890015
field sqrsum 2664467269945
field min 1
field max 19994
statistic Basic.rack[14].node[1].app 	"End-to-End Delay"
field count 19994
field mean 1.1410341596929e-005
field stddev 6.4983850190231e-006
field sum 0.228138369889
field sqrsum 3.4474212858543e-006
field min 1.2992e-006
field max 4.6817818e-005
statistic Basic.rack[14].node[1].app 	hops
field count 19994
field mean 5.7524257277183
field stddev 1.3643961739657
field sum 115014
field sqrsum 698828
field min 3
field max 8
statistic Basic.rack[14].node[2].app 	throughput
field count 20218
field mean 10109.5
field stddev 5836.5782070205
field sum 204393871
field sqrsum 2755024987209
field min 1
field max 20218
statistic Basic.rack[14].node[2].app 	"End-to-End Delay"
field count 20218
field mean 1.1536869840934e-005
field stddev 6.531091124566e-006
field sum 0.233252434444
field sqrsum 3.5533621696362e-006
field min 1.2992e-006
field max 6.4131844e-005
statistic Basic.rack[14].node[2].app 	hops
field count 20218
field mean 5.7417153031952
field stddev 1.3578501762408
field sum 116086
field sqrsum 703808
field min 3
field max 8
statistic Basic.rack[14].node[3].app 	throughput
field count 20045
field mean 10023
field stddev 5786.6374087202
field sum 200911035
field sqrsum 2684908101395
field min 1
field max 20045
statistic Basic.rack[14].node[3].app 	"End-to-End Delay"
field count 20045
field mean 1.1438057940484e-005
field stddev 6.5078871669807e-006
field sum 0.229275871417
field sqrsum 3.4713861233822e-006
field min 1.2992e-006
field max 5.5879035e-005
statistic Basic.rack[14].node[3].app 	hops
field count 20045
field mean 5.7527064105762
field stddev 1.3566168888888
field sum 115313
field sqrsum 700251
field min 3
field max 8
statistic Basic.rack[14].node[4].app 	throughput
field count 20160
field mean 10080.5
field stddev 5819.8350492089
field sum 203222880
field sqrsum 2731383248160
field min 1
field max 20160
statistic Basic.rack[14].node[4].app 	"End-to-End Delay"
field count 20160
field mean 1.1425258574206e-005
field stddev 6.4950269666109e-006
field sum 0.230333212856
field sqrsum 3.4820314957197e-006
field min 1.2992e-006
field max 5.2069943e-005
statistic Basic.rack[14].node[4].app 	hops
field count 20160
field mean 5.7586805555556
field stddev 1.3657307720892
field sum 116095
field sqrsum 706155
field min 3
field max 8
statistic Basic.rack[14].node[5].app 	throughput
field count 20103
field mean 10052
field stddev 5803.3805665319
field sum 202075356
field sqrsum 2708281279564
field min 1
field max 20103
statistic Basic.rack[14].node[5].app 	"End-to-End Delay"
field count 20103
field mean 1.1495455569567e-005
field stddev 6.4653894788918e-006
field sum 0.231093143315
field sqrsum 3.4968099123179e-006
field min 1.2992e-006
field max 4.5368931e-005
statistic Basic.rack[14].node[5].app 	hops
field count 20103
field mean 5.7505347460578
field stddev 1.3552965582829
field sum 115603
field sqrsum 701703
field min 3
field max 8
statistic Basic.rack[14].node[6].app 	throughput
field count 19941
field mean 9971
field stddev 5756.6151947129
field sum 198831711
field sqrsum 2643335043271
field min 1
field max 19941
statistic Basic.rack[14].node[6].app 	"End-to-End Delay"
field count 19941
field mean 1.1459998976531e-005
field stddev 6.5133850227343e-006
field sum 0.228523839591
field sqrsum 3.464821205846e-006
field min 1.2992e-006
field max 5.8553291e-005
statistic Basic.rack[14].node[6].app 	hops
field count 19941
field mean 5.7594403490296
field stddev 1.3599264566945
field sum 114849
field sqrsum 698343
field min 3
field max 8
statistic Basic.rack[14].node[7].app 	throughput
field count 19993
field mean 9997
field stddev 5771.6263017166
field sum 199870021
field sqrsum 2664067509909
field min 1
field max 19993
statistic Basic.rack[14].node[7].app 	"End-to-End Delay"
field count 19993
field mean 1.146782922823e-005
field stddev 6.453675970782e-006
field sum 0.22927630976
field sqrsum 3.4619670376551e-006
field min 1.2992e-006
field max 5.6597689e-005
statistic Basic.rack[14].node[7].app 	hops
field count 19993
field mean 5.7483619266743
field stddev 1.3761933025041
field sum 114927
field sqrsum 698505
field min 3
field max 8
statistic Basic.rack[14].node[8].app 	throughput
field count 19959
field mean 9980
field stddev 5761.8113471373
field sum 199190820
field sqrsum 2650499447860
field min 1
field max 19959
statistic Basic.rack[14].node[8].app 	"End-to-End Delay"
field count 19959
field mean 1.1477983635954e-005
field stddev 6.4878940329389e-006
field sum 0.22908907539
field sqrsum 3.4695681418577e-006
field min 1.2992e-006
field max 5.0586722e-005
statistic Basic.rack[14].node[8].app 	hops
field count 19959
field mean 5.7627636655143
field stddev 1.3626384492048
field sum 115019
field sqrsum 699885
field min 3
field max 8
statistic Basic.rack[14].node[9].app 	throughput
field count 19974
field mean 9987.5
field stddev 5766.1414741576
field sum 199490325
field sqrsum 2656479664475
field min 1
field max 19974
statistic Basic.rack[14].node[9].app 	"End-to-End Delay"
field count 19974
field mean 1.1488490893361e-005
field stddev 6.5283292862605e-006
field sum 0.229471117104
field sqrsum 3.4875077892873e-006
field min 1.2992e-006
field max 5.7274543e-005
statistic Basic.rack[14].node[9].app 	hops
field count 19974
field mean 5.730299389206
field stddev 1.3694297523332
field sum 114457
field sqrsum 693329
field min 3
field max 8
statistic Basic.rack[14].eps.queue[0] 	dropsum
field count 0
field mean nan
field stddev nan
field sum 0
field sqrsum 0
field min nan
field max nan
statistic Basic.rack[14].eps.queue[1] 	dropsum
field count 0
field mean nan
field stddev nan
field sum 0
field sqrsum 0
field min nan
field max nan
statistic Basic.rack[14].eps.queue[2] 	dropsum
field count 0
field mean nan
field stddev nan
field sum 0
field sqrsum 0
field min nan
field max nan
statistic Basic.rack[14].eps.queue[3] 	dropsum
field count 0
field mean nan
field stddev nan
field sum 0
field sqrsum 0
field min nan
field max nan
statistic Basic.rack[15].node[0].app 	throughput
field count 20178
field mean 10089.5
field stddev 5825.0312016332
field sum 203585931
field sqrsum 2738705805789
field min 1
field max 20178
statistic Basic.rack[15].node[0].app 	"End-to-End Delay"
field count 20178
field mean 1.1500177033056e-005
field stddev 6.5239249748655e-006
field sum 0.232050572173
field sqrsum 3.5273880048475e-006
field min 1.2992e-006
field max 6.6250672e-005
statistic Basic.rack[15].node[0].app 	hops
field count 20178
field mean 5.7532461096243
field stddev 1.3610388103205
field sum 116089
field sqrsum 705265
field min 3
field max 8
statistic Basic.rack[15].node[1].app 	throughput
field count 20053
field mean 10027
field stddev 5788.9468097977
field sum 201071431
field sqrsum 2688123961039
field min 1
field max 20053
statistic Basic.rack[15].node[1].app 	"End-to-End Delay"
field count 20053
field mean 1.1428850444173e-005
field stddev 6.4741644587762e-006
field sum 0.229182737957
field sqrsum 3.459770915165e-006
field min 1.2992e-006
field max 4.415613e-005
statistic Basic.rack[15].node[1].app 	hops
field count 20053
field mean 5.7660200468758
field stddev 1.3594129225195
field sum 115626
field sqrsum 703758
field min 3
field max 8
statistic Basic.rack[15].node[2].app 	throughput
field count 20109
field mean 10055
field stddev 5805.11261734
field sum 202195995
field sqrsum 2710706907635
field min 1
field max 20109
statistic Basic.rack[15].node[2].app 	"End-to-End Delay"
field count 20109
field mean 1.1485524171465e-005
field stddev 6.451469481385e-006
field sum 0.230962405564
field sqrsum 3.4896485787046e-006
field min 1.2992e-006
field max 5.142907e-005
statistic Basic.rack[15].node[2].app 	hops
field count 20109
field mean 5.7581182555075
field stddev 1.3613108596327
field sum 115790
field sqrsum 703996
field min 3
field max 8
statistic Basic.rack[15].node[3].app 	throughput
field count 19858
field mean 9929.5
field stddev 5732.655158534
field sum 197180011
field sqrsum 2610466165629
field min 1
field max 19858
statistic Basic.rack[15].node[3].app 	"End-to-End Delay"
field count 19858
field mean 1.1499844392184e-005
field stddev 6.4789436614563e-006
field sum 0.22836390994
field sqrsum 3.4596809787988e-006
field min 1.2992e-006
field max 4.623824e-005
statistic Basic.rack[15].node[3].app 	hops
field count 19858
field mean 5.7619599153993
field stddev 1.3637399682183
field sum 114421
field sqrsum 696219
field min 3
field max 8
statistic Basic.rack[15].node[4].app 	throughput
field count 19921
field mean 9961
field stddev 5750.8416920192
field sum 198433081
field sqrsum 2635389748761
field min 1
field max 19921
statistic Basic.rack[15].node[4].app 	"End-to-End Delay"
field count 19921
field mean 1.1452431054013e-005
field stddev 6.44701131088e-006
field sum 0.228143879027
field sqrsum 3.4407560254167e-006
field min 1.2992e-006
field max 5.3745309e-005
statistic Basic.rack[15].node[4].app 	hops
field count 19921
field mean 5.725967571909
field stddev 1.3681154220257
field sum 114067
field sqrsum 690429
field min 3
field max 8
statistic Basic.rack[15].node[5].app 	throughput
field count 19856
field mean 9928.5
field stddev 5732.0778082646
field sum 197140296
field sqrsum 2609677525016
field min 1
field max 19856
statistic Basic.rack[15].node[5].app 	"End-to-End Delay"
field count 19856
field mean 1.1466368681507e-005
field stddev 6.4203292434217e-006
field sum 0.22767621654
field sqrsum 3.4290549997357e-006
field min 1.2992e-006
field max 4.6099103e-005
statistic Basic.rack[15].node[5].app 	hops
field count 19856
field mean 5.7313658340048
field stddev 1.3613195444011
field sum 113802
field sqrsum 689036
field min 3
field max 8
statistic Basic.rack[15].node[6].app 	throughput
field count 20103
field mean 10052
field stddev 5803.3805665319
field sum 202075356
field sqrsum 2708281279564
field min 1
field max 20103
statistic Basic.rack[15].node[6].app 	"End-to-End Delay"
field count 20103
field mean 1.1453046146247e-005
field stddev 6.4945507762502e-006
field sum 0.230240586678
field sqrsum 3.484842137026e-006
field min 1.2992e-006
field max 5.2495811e-005
statistic Basic.rack[15].node[6].app 	hops
field count 20103
field mean 5.7506342336965
field stddev 1.3609190853303
field sum 115605
field sqrsum 702033
field min 3
field max 8
statistic Basic.rack[15].node[7].app 	throughput
field count 19995
field mean 9998
field stddev 5772.203651986
field sum 199910010
field sqrsum 2664867069970
field min 1
field max 19995
statistic Basic.rack[15].node[7].app 	"End-to-End Delay"
field count 19995
field mean 1.1455213807652e-005
field stddev 6.5005935828302e-006
field sum 0.229047000084
field sqrsum 3.4686831502445e-006
field min 1.2992e-006
field max 5.5276854e-005
statistic Basic.rack[15].node[7].app 	hops
field count 19995
field mean 5.7621905476369
field stddev 1.3592884543876
field sum 115215
field sqrsum 700833
field min 3
field max 8
statistic Basic.rack[15].node[8].app 	throughput
field count 19966
field mean 9983.5
field stddev 5763.8320730801
field sum 199330561
field sqrsum 2653289097471
field min 1
field max 19966
statistic Basic.rack[15].node[8].app 	"End-to-End Delay"
field count 19966
field mean 1.1450408286287e-005
field stddev 6.487760672055e-006
field sum 0.228618851844
field sqrsum 3.4581267799643e-006
field min 1.2992e-006
field max 4.8522494e-005
statistic Basic.rack[15].node[8].app 	hops
field count 19966
field mean 5.7395071621757
field stddev 1.3694125003325
field sum 114595
field sqrsum 695159
field min 3
field max 8
statistic Basic.rack[15].node[9].app 	throughput
field count 19966
field mean 9983.5
field stddev 5763.8320730801
field sum 199330561
field sqrsum 2653289097471
field min 1
field max 19966
statistic Basic.rack[15].node[9].app 	"End-to-End Delay"
field count 19966
field mean 1.1492092632375e-005
field stddev 6.4558436718018e-006
field sum 0.229451121498
field sqrsum 3.4689731660391e-006
field min 1.2992e-006
field max 4.8272644e-005
statistic Basic.rack[15].node[9].app 	hops
field count 19966
field mean 5.7373535009516
field stddev 1.3549342492846
field sum 114552
field sqrsum 693878
field min 3
field max 8
statistic Basic.rack[15].eps.queue[0] 	dropsum
field count 0
field mean nan
field stddev nan
field sum 0
field sqrsum 0
field min nan
field max nan
statistic Basic.rack[15].eps.queue[1] 	dropsum
field count 0
field mean nan
field stddev nan
field sum 0
field sqrsum 0
field min nan
field max nan
statistic Basic.rack[15].eps.queue[2] 	dropsum
field count 0
field mean nan
field stddev nan
field sum 0
field sqrsum 0
field min nan
field max nan
statistic Basic.rack[15].eps.queue[3] 	dropsum
field count 0
field mean nan
field stddev nan
field sum 0
field sqrsum 0
field min nan
field max nan
