version 2
run Basic-79-20180510-21:13:15-19156
attr configname Basic
attr datetime 20180510-21:13:15
attr experiment Basic
attr inifile omnetpp.ini
attr iterationvars "$0=exponential(0.05 ms), $1=7, $2=5"
attr iterationvarsf exponential(0.05_ms),7,5-
attr measurement "$0=exponential(0.05 ms), $1=7, $2=5"
attr network Networks.Basic
attr processid 19156
attr repetition 0
attr replication #0
attr resultdir results
attr runnumber 79
attr seedset 79
param **.frameCapacity 50
param **.packetLength "1024 bytes"
param **.pattern 7
param **.sendIaTime "exponential(0.05 ms)"
param **.tp 5

statistic Basic.rack[0].node[0].app 	throughput
field count 199931
field mean 99966
field stddev 57715.252672062
field sum 19986302346
field sqrsum 2.6639276049929e+015
field min 1
field max 199931
statistic Basic.rack[0].node[0].app 	"End-to-End Delay"
field count 199931
field mean 6.2410939520245e-006
field stddev 6.5963707828129e-006
field sum 1.2477881549222
field sqrsum 1.6486938760437e-005
field min 4e-007
field max 6.3019218e-005
statistic Basic.rack[0].node[0].app 	hops
field count 199931
field mean 2.9999799930976
field stddev 0.70714568432287
field sum 599789
field sqrsum 1899331
field min 2
field max 4
statistic Basic.rack[0].node[1].app 	throughput
field count 200262
field mean 100131.5
field stddev 57810.804141614
field sum 20052534453
field sqrsum 2.6771804539293e+015
field min 1
field max 200262
statistic Basic.rack[0].node[1].app 	"End-to-End Delay"
field count 200262
field mean 6.2178619780947e-006
field stddev 6.5760745617947e-006
field sum 1.2452014754572
field sqrsum 1.6402729119253e-005
field min 4e-007
field max 6.3257395e-005
statistic Basic.rack[0].node[1].app 	hops
field count 200262
field mean 2.9987066942306
field stddev 0.70784141491045
field sum 600527
field sqrsum 1901143
field min 2
field max 4
statistic Basic.rack[0].node[2].app 	throughput
field count 199969
field mean 99985
field stddev 57726.222327177
field sum 19993900465
field sqrsum 2.6654468526905e+015
field min 1
field max 199969
statistic Basic.rack[0].node[2].app 	"End-to-End Delay"
field count 199969
field mean 6.2299685863417e-006
field stddev 6.5717526237522e-006
field sum 1.2458005882422
field sqrsum 1.6397503025312e-005
field min 4e-007
field max 6.7924864e-005
statistic Basic.rack[0].node[2].app 	hops
field count 199969
field mean 2.9981897194065
field stddev 0.70697007890216
field sum 599545
field sqrsum 1897495
field min 2
field max 4
statistic Basic.rack[0].node[3].app 	throughput
field count 199770
field mean 99885.5
field stddev 57668.775975392
field sum 19954126335
field sqrsum 2.6574971966707e+015
field min 1
field max 199770
statistic Basic.rack[0].node[3].app 	"End-to-End Delay"
field count 199770
field mean 6.238293027778e-006
field stddev 6.5832827264128e-006
field sum 1.2462237981592
field sqrsum 1.6432220072038e-005
field min 4e-007
field max 6.1152756e-005
statistic Basic.rack[0].node[3].app 	hops
field count 199770
field mean 2.9985983881464
field stddev 0.70685580415392
field sum 599030
field sqrsum 1896064
field min 2
field max 4
statistic Basic.rack[0].node[4].app 	throughput
field count 199084
field mean 99542.5
field stddev 57470.74483306
field sum 19817319070
field sqrsum 2.6302140389276e+015
field min 1
field max 199084
statistic Basic.rack[0].node[4].app 	"End-to-End Delay"
field count 199084
field mean 6.2472642106659e-006
field stddev 6.5763301215039e-006
field sum 1.2437303481162
field sqrsum 1.6379877140822e-005
field min 4e-007
field max 6.9314418e-005
statistic Basic.rack[0].node[4].app 	hops
field count 199084
field mean 2.9986990416106
field stddev 0.7060943671312
field sum 596993
field sqrsum 1889459
field min 2
field max 4
statistic Basic.rack[0].node[5].app 	throughput
field count 198943
field mean 99472
field stddev 57430.041639082
field sum 19789258096
field sqrsum 2.6246295120144e+015
field min 1
field max 198943
statistic Basic.rack[0].node[5].app 	"End-to-End Delay"
field count 198943
field mean 6.2314517308236e-006
field stddev 6.5653534384493e-006
field sum 1.2397037016852
field sqrsum 1.630032304194e-005
field min 4e-007
field max 6.3716354e-005
statistic Basic.rack[0].node[5].app 	hops
field count 198943
field mean 3.0010254193412
field stddev 0.70659047040242
field sum 597033
field sqrsum 1891037
field min 2
field max 4
statistic Basic.rack[0].node[6].app 	throughput
field count 200126
field mean 100063.5
field stddev 57771.544323309
field sum 20025308001
field sqrsum 2.6717298677748e+015
field min 1
field max 200126
statistic Basic.rack[0].node[6].app 	"End-to-End Delay"
field count 200126
field mean 6.2390094841459e-006
field stddev 6.5698963908326e-006
field sum 1.2485880120242
field sqrsum 1.6428055608388e-005
field min 4e-007
field max 7.8369192e-005
statistic Basic.rack[0].node[6].app 	hops
field count 200126
field mean 3.0012242287359
field stddev 0.70651364060934
field sum 600623
field sqrsum 1902499
field min 2
field max 4
statistic Basic.rack[0].node[7].app 	throughput
field count 199691
field mean 99846
field stddev 57645.970639759
field sum 19938347586
field sqrsum 2.6543456913131e+015
field min 1
field max 199691
statistic Basic.rack[0].node[7].app 	"End-to-End Delay"
field count 199691
field mean 6.256177838872e-006
field stddev 6.5856186653183e-006
field sum 1.2493024088222
field sqrsum 1.6476487869427e-005
field min 4e-007
field max 6.4210972e-005
statistic Basic.rack[0].node[7].app 	hops
field count 199691
field mean 2.9977014487383
field stddev 0.70555746214611
field sum 598614
field sqrsum 1893874
field min 2
field max 4
statistic Basic.rack[0].node[8].app 	throughput
field count 200581
field mean 100291
field stddev 57902.89150955
field sum 20116469071
field sqrsum 2.6899943606432e+015
field min 1
field max 200581
statistic Basic.rack[0].node[8].app 	"End-to-End Delay"
field count 200581
field mean 6.2212835813272e-006
field stddev 6.5691778133927e-006
field sum 1.2478712820262
field sqrsum 1.6419209923617e-005
field min 4e-007
field max 6.9514458e-005
statistic Basic.rack[0].node[8].app 	hops
field count 200581
field mean 2.9996410427708
field stddev 0.70768460490908
field sum 601671
field sqrsum 1905251
field min 2
field max 4
statistic Basic.rack[0].node[9].app 	throughput
field count 200846
field mean 100423.5
field stddev 57979.390420217
field sum 20169658281
field sqrsum 2.7006701812899e+015
field min 1
field max 200846
statistic Basic.rack[0].node[9].app 	"End-to-End Delay"
field count 200846
field mean 6.2317887978956e-006
field stddev 6.5656492611227e-006
field sum 1.2516298529021
field sqrsum 1.645786898938e-005
field min 4e-007
field max 6.2214822e-005
statistic Basic.rack[0].node[9].app 	hops
field count 200846
field mean 2.9979138245223
field stddev 0.70680262198061
field sum 602119
field sqrsum 1905437
field min 2
field max 4
statistic Basic.rack[0].eps.queue[0] 	dropsum
field count 0
field mean nan
field stddev nan
field sum 0
field sqrsum 0
field min nan
field max nan
statistic Basic.rack[0].eps.queue[1] 	dropsum
field count 0
field mean nan
field stddev nan
field sum 0
field sqrsum 0
field min nan
field max nan
statistic Basic.rack[0].eps.queue[2] 	dropsum
field count 0
field mean nan
field stddev nan
field sum 0
field sqrsum 0
field min nan
field max nan
statistic Basic.rack[0].eps.queue[3] 	dropsum
field count 0
field mean nan
field stddev nan
field sum 0
field sqrsum 0
field min nan
field max nan
statistic Basic.rack[1].node[0].app 	throughput
field count 200279
field mean 100140
field stddev 57815.711618902
field sum 20055939060
field sqrsum 2.6778622979782e+015
field min 1
field max 200279
statistic Basic.rack[1].node[0].app 	"End-to-End Delay"
field count 200279
field mean 6.2262946516867e-006
field stddev 6.579014464175e-006
field sum 1.2469960665452
field sqrsum 1.6432883997676e-005
field min 4e-007
field max 6.9918033e-005
statistic Basic.rack[1].node[0].app 	hops
field count 200279
field mean 2.9991411980287
field stddev 0.70705329824617
field sum 600665
field sqrsum 1901603
field min 2
field max 4
statistic Basic.rack[1].node[1].app 	throughput
field count 200185
field mean 100093
field stddev 57788.57615625
field sum 20037117205
field sqrsum 2.6740935508277e+015
field min 1
field max 200185
statistic Basic.rack[1].node[1].app 	"End-to-End Delay"
field count 200185
field mean 6.2318776668491e-006
field stddev 6.5646469137861e-006
field sum 1.2475284307382
field sqrsum 1.6401291791208e-005
field min 4e-007
field max 6.1309029e-005
statistic Basic.rack[1].node[1].app 	hops
field count 200185
field mean 3.0006044408922
field stddev 0.70633960099366
field sum 600676
field sqrsum 1902266
field min 2
field max 4
statistic Basic.rack[1].node[2].app 	throughput
field count 199800
field mean 99900.5
field stddev 57677.43622943
field sum 19960119900
field sqrsum 2.6586946240533e+015
field min 1
field max 199800
statistic Basic.rack[1].node[2].app 	"End-to-End Delay"
field count 199800
field mean 6.2368638544552e-006
field stddev 6.5819730667576e-006
field sum 1.2461253981202
field sqrsum 1.6427680547699e-005
field min 4e-007
field max 6.3152885e-005
statistic Basic.rack[1].node[2].app 	hops
field count 199800
field mean 3.0028378378378
field stddev 0.70682321111913
field sum 599967
field sqrsum 1901423
field min 2
field max 4
statistic Basic.rack[1].node[3].app 	throughput
field count 200175
field mean 100088
field stddev 57785.689404904
field sum 20035115400
field sqrsum 2.6736928285018e+015
field min 1
field max 200175
statistic Basic.rack[1].node[3].app 	"End-to-End Delay"
field count 200175
field mean 6.2052996793367e-006
field stddev 6.5571882264778e-006
field sum 1.2421458633112
field sqrsum 1.631471224362e-005
field min 4e-007
field max 7.3614902e-005
statistic Basic.rack[1].node[3].app 	hops
field count 200175
field mean 2.9953290870488
field stddev 0.70790337111282
field sum 599590
field sqrsum 1896282
field min 2
field max 4
statistic Basic.rack[1].node[4].app 	throughput
field count 199547
field mean 99774
field stddev 57604.401420378
field sum 19909602378
field sqrsum 2.648607587016e+015
field min 1
field max 199547
statistic Basic.rack[1].node[4].app 	"End-to-End Delay"
field count 199547
field mean 6.2165066181413e-006
field stddev 6.5479083915709e-006
field sum 1.2404852461302
field sqrsum 1.6267040305802e-005
field min 4e-007
field max 6.452195e-005
statistic Basic.rack[1].node[4].app 	hops
field count 199547
field mean 2.9979704029627
field stddev 0.70695502185829
field sum 598236
field sqrsum 1893224
field min 2
field max 4
statistic Basic.rack[1].node[5].app 	throughput
field count 200161
field mean 100081
field stddev 57781.647953019
field sum 20032313041
field sqrsum 2.6731318845041e+015
field min 1
field max 200161
statistic Basic.rack[1].node[5].app 	"End-to-End Delay"
field count 200161
field mean 6.2262429904187e-006
field stddev 6.5733379522558e-006
field sum 1.2462510232052
field sqrsum 1.640812946794e-005
field min 4e-007
field max 6.351461e-005
statistic Basic.rack[1].node[5].app 	hops
field count 200161
field mean 2.9985661542458
field stddev 0.70724308989256
field sum 600196
field sqrsum 1899846
field min 2
field max 4
statistic Basic.rack[1].node[6].app 	throughput
field count 199666
field mean 99833.5
field stddev 57638.753761394
field sum 19933355611
field sqrsum 2.6533488987358e+015
field min 1
field max 199666
statistic Basic.rack[1].node[6].app 	"End-to-End Delay"
field count 199666
field mean 6.2073142948186e-006
field stddev 6.5406364501896e-006
field sum 1.2393896159892
field sqrsum 1.6234934639956e-005
field min 4e-007
field max 6.2403854e-005
statistic Basic.rack[1].node[6].app 	hops
field count 199666
field mean 2.9973706089169
field stddev 0.70739400503868
field sum 598473
field sqrsum 1893759
field min 2
field max 4
statistic Basic.rack[1].node[7].app 	throughput
field count 199945
field mean 99973
field stddev 57719.294123947
field sum 19989101485
field sqrsum 2.664487260646e+015
field min 1
field max 199945
statistic Basic.rack[1].node[7].app 	"End-to-End Delay"
field count 199945
field mean 6.2194782434729e-006
field stddev 6.5717780420167e-006
field sum 1.2435535773912
field sqrsum 1.6369489202953e-005
field min 4e-007
field max 6.2659292e-005
statistic Basic.rack[1].node[7].app 	hops
field count 199945
field mean 2.9984695791343
field stddev 0.70815116487677
field sum 599529
field sqrsum 1897937
field min 2
field max 4
statistic Basic.rack[1].node[8].app 	throughput
field count 200668
field mean 100334.5
field stddev 57928.006246259
field sum 20133923446
field sqrsum 2.6934961446824e+015
field min 1
field max 200668
statistic Basic.rack[1].node[8].app 	"End-to-End Delay"
field count 200668
field mean 6.2190378823638e-006
field stddev 6.579234566686e-006
field sum 1.2479618937782
field sqrsum 1.644725977028e-005
field min 4e-007
field max 5.8925496e-005
statistic Basic.rack[1].node[8].app 	hops
field count 200668
field mean 3.0002890346244
field stddev 0.70818593784346
field sum 602062
field sqrsum 1907000
field min 2
field max 4
statistic Basic.rack[1].node[9].app 	throughput
field count 199769
field mean 99885
field stddev 57668.487300258
field sum 19953926565
field sqrsum 2.6574572886178e+015
field min 1
field max 199769
statistic Basic.rack[1].node[9].app 	"End-to-End Delay"
field count 199769
field mean 6.206787708915e-006
field stddev 6.5468466543018e-006
field sum 1.2399237738222
field sqrsum 1.6258240063681e-005
field min 4e-007
field max 6.5046806e-005
statistic Basic.rack[1].node[9].app 	hops
field count 199769
field mean 3.0030635383868
field stddev 0.70751770287421
field sum 599919
field sqrsum 1901595
field min 2
field max 4
statistic Basic.rack[1].eps.queue[0] 	dropsum
field count 0
field mean nan
field stddev nan
field sum 0
field sqrsum 0
field min nan
field max nan
statistic Basic.rack[1].eps.queue[1] 	dropsum
field count 0
field mean nan
field stddev nan
field sum 0
field sqrsum 0
field min nan
field max nan
statistic Basic.rack[1].eps.queue[2] 	dropsum
field count 0
field mean nan
field stddev nan
field sum 0
field sqrsum 0
field min nan
field max nan
statistic Basic.rack[1].eps.queue[3] 	dropsum
field count 0
field mean nan
field stddev nan
field sum 0
field sqrsum 0
field min nan
field max nan
statistic Basic.rack[2].node[0].app 	throughput
field count 199674
field mean 99837.5
field stddev 57641.063162471
field sum 19934952975
field sqrsum 2.6536678452044e+015
field min 1
field max 199674
statistic Basic.rack[2].node[0].app 	"End-to-End Delay"
field count 199674
field mean 3.5032449695744e-006
field stddev 5.4244167973066e-006
field sum 0.6995069360548
field sqrsum 8.3257819277846e-006
field min 4e-007
field max 6.5117566e-005
statistic Basic.rack[2].node[0].app 	hops
field count 199674
field mean 3.2501277081643
field stddev 0.82816029402823
field sum 648966
field sqrsum 2246168
field min 2
field max 4
statistic Basic.rack[2].node[1].app 	throughput
field count 200487
field mean 100244
field stddev 57875.756046898
field sum 20097618828
field sqrsum 2.6862142365191e+015
field min 1
field max 200487
statistic Basic.rack[2].node[1].app 	"End-to-End Delay"
field count 200487
field mean 3.5018328143511e-006
field stddev 5.4417655155655e-006
field sum 0.70207195545082
field sqrsum 8.3954928235092e-006
field min 4e-007
field max 6.5421793e-005
statistic Basic.rack[2].node[1].app 	hops
field count 200487
field mean 3.2498166963444
field stddev 0.82886982248371
field sum 651546
field sqrsum 2255144
field min 2
field max 4
statistic Basic.rack[2].node[2].app 	throughput
field count 198760
field mean 99380.5
field stddev 57377.214089451
field sum 19752868180
field sqrsum 2.6173933039273e+015
field min 1
field max 198760
statistic Basic.rack[2].node[2].app 	"End-to-End Delay"
field count 198760
field mean 3.4702827617567e-006
field stddev 5.4016616891401e-006
field sum 0.68975340172677
field sqrsum 8.1930193059463e-006
field min 4e-007
field max 6.33686e-005
statistic Basic.rack[2].node[2].app 	hops
field count 198760
field mean 3.2527570939827
field stddev 0.82910515488567
field sum 646518
field sqrsum 2239596
field min 2
field max 4
statistic Basic.rack[2].node[3].app 	throughput
field count 200321
field mean 100161
field stddev 57827.835974555
field sum 20064351681
field sqrsum 2.679547350177e+015
field min 1
field max 200321
statistic Basic.rack[2].node[3].app 	"End-to-End Delay"
field count 200321
field mean 3.4983618177116e-006
field stddev 5.4125919183101e-006
field sum 0.70079533768581
field sqrsum 8.3202406746293e-006
field min 4e-007
field max 6.2875071e-005
statistic Basic.rack[2].node[3].app 	hops
field count 200321
field mean 3.250428062959
field stddev 0.82824968029897
field sum 651129
field sqrsum 2253867
field min 2
field max 4
statistic Basic.rack[2].node[4].app 	throughput
field count 199308
field mean 99654.5
field stddev 57535.408063209
field sum 19861939086
field sqrsum 2.6391021908814e+015
field min 1
field max 199308
statistic Basic.rack[2].node[4].app 	"End-to-End Delay"
field count 199308
field mean 3.4854677779407e-006
field stddev 5.3980284550257e-006
field sum 0.6946816118858
field sqrsum 8.2288394875467e-006
field min 4e-007
field max 6.0454183e-005
statistic Basic.rack[2].node[4].app 	hops
field count 199308
field mean 3.2526592008349
field stddev 0.82791561617395
field sum 648281
field sqrsum 2245251
field min 2
field max 4
statistic Basic.rack[2].node[5].app 	throughput
field count 200235
field mean 100118
field stddev 57803.009912979
field sum 20047127730
field sqrsum 2.6760977630536e+015
field min 1
field max 200235
statistic Basic.rack[2].node[5].app 	"End-to-End Delay"
field count 200235
field mean 3.4810042618364e-006
field stddev 5.4167645515064e-006
field sum 0.69701888836881
field sqrsum 8.3014592354239e-006
field min 4e-007
field max 6.227653e-005
statistic Basic.rack[2].node[5].app 	hops
field count 200235
field mean 3.2472444877269
field stddev 0.8302029441794
field sum 650212
field sqrsum 2249406
field min 2
field max 4
statistic Basic.rack[2].node[6].app 	throughput
field count 200243
field mean 100122
field stddev 57805.319314056
field sum 20048729646
field sqrsum 2.6764185299125e+015
field min 1
field max 200243
statistic Basic.rack[2].node[6].app 	"End-to-End Delay"
field count 200243
field mean 3.4834057429664e-006
field stddev 5.4133698669624e-006
field sum 0.69752761618881
field sqrsum 8.2977780741596e-006
field min 4e-007
field max 6.299359e-005
statistic Basic.rack[2].node[6].app 	hops
field count 200243
field mean 3.2483932022593
field stddev 0.82992616049355
field sum 650468
field sqrsum 2250898
field min 2
field max 4
statistic Basic.rack[2].node[7].app 	throughput
field count 200639
field mean 100320
field stddev 57919.634667356
field sum 20128104480
field sqrsum 2.6923285458766e+015
field min 1
field max 200639
statistic Basic.rack[2].node[7].app 	"End-to-End Delay"
field count 200639
field mean 3.4673896906823e-006
field stddev 5.3946465568014e-006
field sum 0.69569360014881
field sqrsum 8.2512503225111e-006
field min 4e-007
field max 6.9495131e-005
statistic Basic.rack[2].node[7].app 	hops
field count 200639
field mean 3.2530315641525
field stddev 0.82910651040363
field sum 652685
field sqrsum 2261127
field min 2
field max 4
statistic Basic.rack[2].node[8].app 	throughput
field count 199786
field mean 99893.5
field stddev 57673.394777546
field sum 19957322791
field sqrsum 2.6581357798561e+015
field min 1
field max 199786
statistic Basic.rack[2].node[8].app 	"End-to-End Delay"
field count 199786
field mean 3.4787010278538e-006
field stddev 5.4060370492125e-006
field sum 0.69499576355081
field sqrsum 8.2564463666458e-006
field min 4e-007
field max 6.250671e-005
statistic Basic.rack[2].node[8].app 	hops
field count 199786
field mean 3.254367172875
field stddev 0.82837143684975
field sum 650177
field sqrsum 2253007
field min 2
field max 4
statistic Basic.rack[2].node[9].app 	throughput
field count 200167
field mean 100084
field stddev 57783.380003827
field sum 20033514028
field sqrsum 2.6733722794665e+015
field min 1
field max 200167
statistic Basic.rack[2].node[9].app 	"End-to-End Delay"
field count 200167
field mean 3.487661252783e-006
field stddev 5.4013295355166e-006
field sum 0.69811468998581
field sqrsum 8.2745026483956e-006
field min 4e-007
field max 6.4959077e-005
statistic Basic.rack[2].node[9].app 	hops
field count 200167
field mean 3.2493168204549
field stddev 0.82900771994127
field sum 650406
field sqrsum 2250940
field min 2
field max 4
statistic Basic.rack[2].eps.queue[0] 	dropsum
field count 0
field mean nan
field stddev nan
field sum 0
field sqrsum 0
field min nan
field max nan
statistic Basic.rack[2].eps.queue[1] 	dropsum
field count 0
field mean nan
field stddev nan
field sum 0
field sqrsum 0
field min nan
field max nan
statistic Basic.rack[2].eps.queue[2] 	dropsum
field count 0
field mean nan
field stddev nan
field sum 0
field sqrsum 0
field min nan
field max nan
statistic Basic.rack[2].eps.queue[3] 	dropsum
field count 0
field mean nan
field stddev nan
field sum 0
field sqrsum 0
field min nan
field max nan
statistic Basic.rack[3].node[0].app 	throughput
field count 199378
field mean 99689.5
field stddev 57555.615322631
field sum 19875893131
field sqrsum 2.6418838390794e+015
field min 1
field max 199378
statistic Basic.rack[3].node[0].app 	"End-to-End Delay"
field count 199378
field mean 3.465048531863e-006
field stddev 5.3776048299238e-006
field sum 0.69085444618578
field sqrsum 8.1595546170517e-006
field min 4e-007
field max 7.3561988e-005
statistic Basic.rack[3].node[0].app 	hops
field count 199378
field mean 3.2543359849131
field stddev 0.82860612153858
field sum 648843
field sqrsum 2248443
field min 2
field max 4
statistic Basic.rack[3].node[1].app 	throughput
field count 199681
field mean 99841
field stddev 57643.083888413
field sum 19936350721
field sqrsum 2.6539469443302e+015
field min 1
field max 199681
statistic Basic.rack[3].node[1].app 	"End-to-End Delay"
field count 199681
field mean 3.4650736050941e-006
field stddev 5.3773465283282e-006
field sum 0.69190936253879
field sqrsum 8.1714349325759e-006
field min 4e-007
field max 6.6559492e-005
statistic Basic.rack[3].node[1].app 	hops
field count 199681
field mean 3.2511055132937
field stddev 0.82961002691899
field sum 649184
field sqrsum 2247996
field min 2
field max 4
statistic Basic.rack[3].node[2].app 	throughput
field count 198841
field mean 99421
field stddev 57400.596775353
field sum 19768971061
field sqrsum 2.6205945728172e+015
field min 1
field max 198841
statistic Basic.rack[3].node[2].app 	"End-to-End Delay"
field count 198841
field mean 3.4907091576023e-006
field stddev 5.4135256216216e-006
field sum 0.69409609960679
field sqrsum 8.2501442811433e-006
field min 4e-007
field max 6.3395295e-005
statistic Basic.rack[3].node[2].app 	hops
field count 198841
field mean 3.2475093164891
field stddev 0.82976654400303
field sum 645738
field sqrsum 2233944
field min 2
field max 4
statistic Basic.rack[3].node[3].app 	throughput
field count 200217
field mean 100109
field stddev 57797.813760557
field sum 20043523653
field sqrsum 2.6753761313297e+015
field min 1
field max 200217
statistic Basic.rack[3].node[3].app 	"End-to-End Delay"
field count 200217
field mean 3.470036230484e-006
field stddev 5.3665023730347e-006
field sum 0.69476024395881
field sqrsum 8.1769334211019e-006
field min 4e-007
field max 7.3096075e-005
statistic Basic.rack[3].node[3].app 	hops
field count 200217
field mean 3.2535948495882
field stddev 0.82834704321626
field sum 651425
field sqrsum 2256853
field min 2
field max 4
statistic Basic.rack[3].node[4].app 	throughput
field count 199693
field mean 99847
field stddev 57646.547990029
field sum 19938746971
field sqrsum 2.6544254455023e+015
field min 1
field max 199693
statistic Basic.rack[3].node[4].app 	"End-to-End Delay"
field count 199693
field mean 3.4908915073578e-006
field stddev 5.420677040775e-006
field sum 0.69710659777879
field sqrsum 8.3012212261954e-006
field min 4e-007
field max 7.1285774e-005
statistic Basic.rack[3].node[4].app 	hops
field count 199693
field mean 3.2479706349246
field stddev 0.8298044086097
field sum 648597
field sqrsum 2244127
field min 2
field max 4
statistic Basic.rack[3].node[5].app 	throughput
field count 200667
field mean 100334
field stddev 57927.717571125
field sum 20133722778
field sqrsum 2.6934558770362e+015
field min 1
field max 200667
statistic Basic.rack[3].node[5].app 	"End-to-End Delay"
field count 200667
field mean 3.460945038984e-006
field stddev 5.3761608346352e-006
field sum 0.69449745813781
field sqrsum 8.2034880644453e-006
field min 4e-007
field max 7.594319e-005
statistic Basic.rack[3].node[5].app 	hops
field count 200667
field mean 3.2518999137875
field stddev 0.82945391460115
field sum 652549
field sqrsum 2260081
field min 2
field max 4
statistic Basic.rack[3].node[6].app 	throughput
field count 199969
field mean 99985
field stddev 57726.222327177
field sum 19993900465
field sqrsum 2.6654468526905e+015
field min 1
field max 199969
statistic Basic.rack[3].node[6].app 	"End-to-End Delay"
field count 199969
field mean 3.5010981104361e-006
field stddev 5.4202615981478e-006
field sum 0.70011108804579
field sqrsum 8.3260646303783e-006
field min 4e-007
field max 6.7200238e-005
statistic Basic.rack[3].node[6].app 	hops
field count 199969
field mean 3.2484835149448
field stddev 0.82876438702143
field sum 649596
field sqrsum 2247550
field min 2
field max 4
statistic Basic.rack[3].node[7].app 	throughput
field count 199340
field mean 99670.5
field stddev 57544.645667516
field sum 19868317470
field sqrsum 2.6403735590857e+015
field min 1
field max 199340
statistic Basic.rack[3].node[7].app 	"End-to-End Delay"
field count 199340
field mean 3.4700654334995e-006
field stddev 5.3874488518914e-006
field sum 0.69172284351379
field sqrsum 8.1860592911964e-006
field min 4e-007
field max 5.4629608e-005
statistic Basic.rack[3].node[7].app 	hops
field count 199340
field mean 3.243975117889
field stddev 0.83169627923261
field sum 646654
field sqrsum 2235616
field min 2
field max 4
statistic Basic.rack[3].node[8].app 	throughput
field count 199467
field mean 99734
field stddev 57581.30740961
field sum 19893641778
field sqrsum 2.6454233275688e+015
field min 1
field max 199467
statistic Basic.rack[3].node[8].app 	"End-to-End Delay"
field count 199467
field mean 3.4950223274265e-006
field stddev 5.4087417551434e-006
field sum 0.69714161858478
field sqrsum 8.2718011008407e-006
field min 4e-007
field max 6.6360573e-005
statistic Basic.rack[3].node[8].app 	hops
field count 199467
field mean 3.2503170950583
field stddev 0.828299566145
field sum 648331
field sqrsum 2244131
field min 2
field max 4
statistic Basic.rack[3].node[9].app 	throughput
field count 200388
field mean 100194.5
field stddev 57847.177208573
field sum 20077775466
field sqrsum 2.6822368726457e+015
field min 1
field max 200388
statistic Basic.rack[3].node[9].app 	"End-to-End Delay"
field count 200388
field mean 3.4754799771882e-006
field stddev 5.3882996004056e-006
field sum 0.6964444816688
field sqrsum 8.2384694379993e-006
field min 4e-007
field max 6.8810764e-005
statistic Basic.rack[3].node[9].app 	hops
field count 200388
field mean 3.2520260694253
field stddev 0.82857479418112
field sum 651667
field sqrsum 2256811
field min 2
field max 4
statistic Basic.rack[3].eps.queue[0] 	dropsum
field count 0
field mean nan
field stddev nan
field sum 0
field sqrsum 0
field min nan
field max nan
statistic Basic.rack[3].eps.queue[1] 	dropsum
field count 0
field mean nan
field stddev nan
field sum 0
field sqrsum 0
field min nan
field max nan
statistic Basic.rack[3].eps.queue[2] 	dropsum
field count 0
field mean nan
field stddev nan
field sum 0
field sqrsum 0
field min nan
field max nan
statistic Basic.rack[3].eps.queue[3] 	dropsum
field count 0
field mean nan
field stddev nan
field sum 0
field sqrsum 0
field min nan
field max nan
statistic Basic.rack[4].node[0].app 	throughput
field count 200312
field mean 100156.5
field stddev 57825.237898343
field sum 20062548828
field sqrsum 2.6791862080725e+015
field min 1
field max 200312
statistic Basic.rack[4].node[0].app 	"End-to-End Delay"
field count 200312
field mean 6.2134969512472e-006
field stddev 6.5531101942539e-006
field sum 1.2446380012982
field sqrsum 1.6335560421831e-005
field min 4e-007
field max 6.9403367e-005
statistic Basic.rack[4].node[0].app 	hops
field count 200312
field mean 3.0016923599185
field stddev 0.7074206253153
field sum 601275
field sqrsum 1905087
field min 2
field max 4
statistic Basic.rack[4].node[1].app 	throughput
field count 199968
field mean 99984.5
field stddev 57725.933652042
field sum 19993700496
field sqrsum 2.6654068650896e+015
field min 1
field max 199968
statistic Basic.rack[4].node[1].app 	"End-to-End Delay"
field count 199968
field mean 6.2241329731767e-006
field stddev 6.5644992628009e-006
field sum 1.2446274223802
field sqrsum 1.636383463575e-005
field min 4e-007
field max 6.3352184e-005
statistic Basic.rack[4].node[1].app 	hops
field count 199968
field mean 2.9973545767323
field stddev 0.70730513157057
field sum 599375
field sqrsum 1896579
field min 2
field max 4
statistic Basic.rack[4].node[2].app 	throughput
field count 199944
field mean 99972.5
field stddev 57719.005448812
field sum 19988901540
field sqrsum 2.664447282643e+015
field min 1
field max 199944
statistic Basic.rack[4].node[2].app 	"End-to-End Delay"
field count 199944
field mean 6.2198023366854e-006
field stddev 6.5605223904769e-006
field sum 1.2436121584062
field sqrsum 1.6340659310095e-005
field min 4e-007
field max 6.9438633e-005
statistic Basic.rack[4].node[2].app 	hops
field count 199944
field mean 3.0015904453247
field stddev 0.7075522247756
field sum 600150
field sqrsum 1901502
field min 2
field max 4
statistic Basic.rack[4].node[3].app 	throughput
field count 200519
field mean 100260
field stddev 57884.993651205
field sum 20104034940
field sqrsum 2.6875006894342e+015
field min 1
field max 200519
statistic Basic.rack[4].node[3].app 	"End-to-End Delay"
field count 200519
field mean 6.2166767527475e-006
field stddev 6.5718685059499e-006
field sum 1.2465618057842
field sqrsum 1.6409735068812e-005
field min 4e-007
field max 6.7292159e-005
statistic Basic.rack[4].node[3].app 	hops
field count 200519
field mean 3.0023489045926
field stddev 0.7079557590807
field sum 602028
field sqrsum 1907998
field min 2
field max 4
statistic Basic.rack[4].node[4].app 	throughput
field count 200515
field mean 100258
field stddev 57883.838950666
field sum 20103232870
field sqrsum 2.687339860363e+015
field min 1
field max 200515
statistic Basic.rack[4].node[4].app 	"End-to-End Delay"
field count 200515
field mean 6.2115909186656e-006
field stddev 6.5455020183879e-006
field sum 1.2455171530562
field sqrsum 1.63273839802e-005
field min 4e-007
field max 7.06866e-005
statistic Basic.rack[4].node[4].app 	hops
field count 200515
field mean 2.9985836471087
field stddev 0.70720762314877
field sum 601261
field sqrsum 1903217
field min 2
field max 4
statistic Basic.rack[4].node[5].app 	throughput
field count 200428
field mean 100214.5
field stddev 57858.724213956
field sum 20085791806
field sqrsum 2.6838434153259e+015
field min 1
field max 200428
statistic Basic.rack[4].node[5].app 	"End-to-End Delay"
field count 200428
field mean 6.2095711615453e-006
field stddev 6.5555606176074e-006
field sum 1.2445719287662
field sqrsum 1.634168344469e-005
field min 4e-007
field max 7.0143256e-005
statistic Basic.rack[4].node[5].app 	hops
field count 200428
field mean 3.0017462629972
field stddev 0.70785393051506
field sum 601634
field sqrsum 1906378
field min 2
field max 4
statistic Basic.rack[4].node[6].app 	throughput
field count 200005
field mean 100003
field stddev 57736.614632022
field sum 20001100015
field sqrsum 2.6668866727001e+015
field min 1
field max 200005
statistic Basic.rack[4].node[6].app 	"End-to-End Delay"
field count 200005
field mean 6.225128005441e-006
field stddev 6.5492492026967e-006
field sum 1.2450567267282
field sqrsum 1.6329342092384e-005
field min 4e-007
field max 6.1852318e-005
statistic Basic.rack[4].node[6].app 	hops
field count 200005
field mean 2.9991800204995
field stddev 0.70679511630322
field sum 599851
field sqrsum 1898975
field min 2
field max 4
statistic Basic.rack[4].node[7].app 	throughput
field count 200004
field mean 100002.5
field stddev 57736.325956888
field sum 20000900010
field sqrsum 2.6668466707e+015
field min 1
field max 200004
statistic Basic.rack[4].node[7].app 	"End-to-End Delay"
field count 200004
field mean 6.2001287018022e-006
field stddev 6.54287138798e-006
field sum 1.2400505408752
field sqrsum 1.6250434577593e-005
field min 4e-007
field max 7.7053401e-005
statistic Basic.rack[4].node[7].app 	hops
field count 200004
field mean 3.0001899962001
field stddev 0.70761038235312
field sum 600050
field sqrsum 1900408
field min 2
field max 4
statistic Basic.rack[4].node[8].app 	throughput
field count 199028
field mean 99514.5
field stddev 57454.579025522
field sum 19806171906
field sqrsum 2.6279951234622e+015
field min 1
field max 199028
statistic Basic.rack[4].node[8].app 	"End-to-End Delay"
field count 199028
field mean 6.2154859938414e-006
field stddev 6.5398120336927e-006
field sum 1.2370557463823
field sqrsum 1.6201116577829e-005
field min 4e-007
field max 6.2982906e-005
statistic Basic.rack[4].node[8].app 	hops
field count 199028
field mean 3.0008390779187
field stddev 0.70715424479927
field sum 597251
field sqrsum 1891781
field min 2
field max 4
statistic Basic.rack[4].node[9].app 	throughput
field count 199601
field mean 99801
field stddev 57619.989877646
field sum 19920379401
field sqrsum 2.6507584060058e+015
field min 1
field max 199601
statistic Basic.rack[4].node[9].app 	"End-to-End Delay"
field count 199601
field mean 6.2046174697335e-006
field stddev 6.5360644681505e-006
field sum 1.2384478515763
field sqrsum 1.6211034866115e-005
field min 4e-007
field max 6.3628091e-005
statistic Basic.rack[4].node[9].app 	hops
field count 199601
field mean 3.0023597076167
field stddev 0.70780747787802
field sum 599274
field sqrsum 1899234
field min 2
field max 4
statistic Basic.rack[4].eps.queue[0] 	dropsum
field count 0
field mean nan
field stddev nan
field sum 0
field sqrsum 0
field min nan
field max nan
statistic Basic.rack[4].eps.queue[1] 	dropsum
field count 0
field mean nan
field stddev nan
field sum 0
field sqrsum 0
field min nan
field max nan
statistic Basic.rack[4].eps.queue[2] 	dropsum
field count 0
field mean nan
field stddev nan
field sum 0
field sqrsum 0
field min nan
field max nan
statistic Basic.rack[4].eps.queue[3] 	dropsum
field count 0
field mean nan
field stddev nan
field sum 0
field sqrsum 0
field min nan
field max nan
statistic Basic.rack[5].node[0].app 	throughput
field count 200427
field mean 100214
field stddev 57858.435538822
field sum 20085591378
field sqrsum 2.6838032439427e+015
field min 1
field max 200427
statistic Basic.rack[5].node[0].app 	"End-to-End Delay"
field count 200427
field mean 6.2421770591745e-006
field stddev 6.5795741282367e-006
field sum 1.2511008214392
field sqrsum 1.6486193867066e-005
field min 4e-007
field max 6.4956549e-005
statistic Basic.rack[5].node[0].app 	hops
field count 200427
field mean 3.0018710054035
field stddev 0.70645484976482
field sum 601656
field sqrsum 1906122
field min 2
field max 4
statistic Basic.rack[5].node[1].app 	throughput
field count 199873
field mean 99937
field stddev 57698.509514256
field sum 19974708001
field sqrsum 2.6616098664252e+015
field min 1
field max 199873
statistic Basic.rack[5].node[1].app 	"End-to-End Delay"
field count 199873
field mean 6.2271501980768e-006
field stddev 6.5930039497198e-006
field sum 1.2446391915402
field sqrsum 1.6438531538599e-005
field min 4e-007
field max 5.9865763e-005
statistic Basic.rack[5].node[1].app 	hops
field count 199873
field mean 2.9994696632362
field stddev 0.70773603038583
field sum 599513
field sqrsum 1898335
field min 2
field max 4
statistic Basic.rack[5].node[2].app 	throughput
field count 200471
field mean 100236
field stddev 57871.137244744
field sum 20094411156
field sqrsum 2.68557116404e+015
field min 1
field max 200471
statistic Basic.rack[5].node[2].app 	"End-to-End Delay"
field count 200471
field mean 6.2314429854652e-006
field stddev 6.5621124576707e-006
field sum 1.2492236067392
field sqrsum 1.6416968483272e-005
field min 4e-007
field max 6.0702182e-005
statistic Basic.rack[5].node[2].app 	hops
field count 200471
field mean 3.0005536960458
field stddev 0.70651373857211
field sum 601524
field sqrsum 1904972
field min 2
field max 4
statistic Basic.rack[5].node[3].app 	throughput
field count 200762
field mean 100381.5
field stddev 57955.141708911
field sum 20152790703
field sqrsum 2.697283095674e+015
field min 1
field max 200762
statistic Basic.rack[5].node[3].app 	"End-to-End Delay"
field count 200762
field mean 6.2152283289327e-006
field stddev 6.5648420306223e-006
field sum 1.2477816697732
field sqrsum 1.6407475091527e-005
field min 4e-007
field max 6.01769e-005
statistic Basic.rack[5].node[3].app 	hops
field count 200762
field mean 2.9998256642193
field stddev 0.70768591328175
field sum 602251
field sqrsum 1907193
field min 2
field max 4
statistic Basic.rack[5].node[4].app 	throughput
field count 200190
field mean 100095.5
field stddev 57790.019531923
field sum 20038118145
field sqrsum 2.6742939270044e+015
field min 1
field max 200190
statistic Basic.rack[5].node[4].app 	"End-to-End Delay"
field count 200190
field mean 6.2219509663981e-006
field stddev 6.5735794128884e-006
field sum 1.2455723639632
field sqrsum 1.640044649104e-005
field min 4e-007
field max 7.1215782e-005
statistic Basic.rack[5].node[4].app 	hops
field count 200190
field mean 2.9972326290024
field stddev 0.7072903145602
field sum 600016
field sqrsum 1898534
field min 2
field max 4
statistic Basic.rack[5].node[5].app 	throughput
field count 200391
field mean 100196
field stddev 57848.043233976
field sum 20078376636
field sqrsum 2.682357341102e+015
field min 1
field max 200391
statistic Basic.rack[5].node[5].app 	"End-to-End Delay"
field count 200391
field mean 6.2438748499542e-006
field stddev 6.587295156535e-006
field sum 1.2512163250572
field sqrsum 1.6507852698155e-005
field min 4e-007
field max 6.8044787e-005
statistic Basic.rack[5].node[5].app 	hops
field count 200391
field mean 2.9990318926499
field stddev 0.70629759391357
field sum 600979
field sqrsum 1902321
field min 2
field max 4
statistic Basic.rack[5].node[6].app 	throughput
field count 199187
field mean 99594
field stddev 57500.478371923
field sum 19837830078
field sqrsum 2.6342985191078e+015
field min 1
field max 199187
statistic Basic.rack[5].node[6].app 	"End-to-End Delay"
field count 199187
field mean 6.2355292357644e-006
field stddev 6.5718149320332e-006
field sum 1.2420363618842
field sqrsum 1.6347348702868e-005
field min 4e-007
field max 6.7227993e-005
statistic Basic.rack[5].node[6].app 	hops
field count 199187
field mean 2.9987599592343
field stddev 0.70685004852758
field sum 597314
field sqrsum 1890722
field min 2
field max 4
statistic Basic.rack[5].node[7].app 	throughput
field count 199622
field mean 99811.5
field stddev 57626.052055472
field sum 19924571253
field sqrsum 2.651595149968e+015
field min 1
field max 199622
statistic Basic.rack[5].node[7].app 	"End-to-End Delay"
field count 199622
field mean 6.215687090377e-006
field stddev 6.5738978030714e-006
field sum 1.2407878883552
field sqrsum 1.633919681044e-005
field min 4e-007
field max 7.2341451e-005
statistic Basic.rack[5].node[7].app 	hops
field count 199622
field mean 3.0005660698721
field stddev 0.70791549545926
field sum 598979
field sqrsum 1897315
field min 2
field max 4
statistic Basic.rack[5].node[8].app 	throughput
field count 200083
field mean 100042
field stddev 57759.131292521
field sum 20016703486
field sqrsum 2.6700080612941e+015
field min 1
field max 200083
statistic Basic.rack[5].node[8].app 	"End-to-End Delay"
field count 200083
field mean 6.2462715809648e-006
field stddev 6.5769938464622e-006
field sum 1.2497727567342
field sqrsum 1.6461336725874e-005
field min 4e-007
field max 5.9726191e-005
statistic Basic.rack[5].node[8].app 	hops
field count 200083
field mean 2.9998600580759
field stddev 0.70597141457461
field sum 600221
field sqrsum 1900299
field min 2
field max 4
statistic Basic.rack[5].node[9].app 	throughput
field count 200869
field mean 100435
field stddev 57986.029948313
field sum 20174278015
field sqrsum 2.7015980918227e+015
field min 1
field max 200869
statistic Basic.rack[5].node[9].app 	"End-to-End Delay"
field count 200869
field mean 6.2515306155213e-006
field stddev 6.5844468146001e-006
field sum 1.2557387032092
field sqrsum 1.655890900686e-005
field min 4e-007
field max 5.9364047e-005
statistic Basic.rack[5].node[9].app 	hops
field count 200869
field mean 2.9992731581279
field stddev 0.70605659146735
field sum 602461
field sqrsum 1907081
field min 2
field max 4
statistic Basic.rack[5].eps.queue[0] 	dropsum
field count 0
field mean nan
field stddev nan
field sum 0
field sqrsum 0
field min nan
field max nan
statistic Basic.rack[5].eps.queue[1] 	dropsum
field count 0
field mean nan
field stddev nan
field sum 0
field sqrsum 0
field min nan
field max nan
statistic Basic.rack[5].eps.queue[2] 	dropsum
field count 0
field mean nan
field stddev nan
field sum 0
field sqrsum 0
field min nan
field max nan
statistic Basic.rack[5].eps.queue[3] 	dropsum
field count 0
field mean nan
field stddev nan
field sum 0
field sqrsum 0
field min nan
field max nan
statistic Basic.rack[6].node[0].app 	throughput
field count 199288
field mean 99644.5
field stddev 57529.634560517
field sum 19857953116
field sqrsum 2.6383077930386e+015
field min 1
field max 199288
statistic Basic.rack[6].node[0].app 	"End-to-End Delay"
field count 199288
field mean 3.484317721387e-006
field stddev 5.422825274218e-006
field sum 0.69438271005978
field sqrsum 8.2798895578159e-006
field min 4e-007
field max 6.2303681e-005
statistic Basic.rack[6].node[0].app 	hops
field count 199288
field mean 3.2509232869014
field stddev 0.82918197064682
field sum 647870
field sqrsum 2243194
field min 2
field max 4
statistic Basic.rack[6].node[1].app 	throughput
field count 199622
field mean 99811.5
field stddev 57626.052055472
field sum 19924571253
field sqrsum 2.651595149968e+015
field min 1
field max 199622
statistic Basic.rack[6].node[1].app 	"End-to-End Delay"
field count 199622
field mean 3.503533786751e-006
field stddev 5.4198110152958e-006
field sum 0.69938242157881
field sqrsum 8.3140473529691e-006
field min 4e-007
field max 6.7678537e-005
statistic Basic.rack[6].node[1].app 	hops
field count 199622
field mean 3.2497971165503
field stddev 0.82847752810122
field sum 648731
field sqrsum 2245259
field min 2
field max 4
statistic Basic.rack[6].node[2].app 	throughput
field count 200066
field mean 100033.5
field stddev 57754.223815233
field sum 20013302211
field sqrsum 2.669327551198e+015
field min 1
field max 200066
statistic Basic.rack[6].node[2].app 	"End-to-End Delay"
field count 200066
field mean 3.4975788870414e-006
field stddev 5.4385200933465e-006
field sum 0.69974661761482
field sqrsum 8.3648416947474e-006
field min 4e-007
field max 5.8679971e-005
statistic Basic.rack[6].node[2].app 	hops
field count 200066
field mean 3.251212100007
field stddev 0.82868176850337
field sum 650457
field sqrsum 2252161
field min 2
field max 4
statistic Basic.rack[6].node[3].app 	throughput
field count 199508
field mean 99754.5
field stddev 57593.143090128
field sum 19901820786
field sqrsum 2.6470549415225e+015
field min 1
field max 199508
statistic Basic.rack[6].node[3].app 	"End-to-End Delay"
field count 199508
field mean 3.4945526724232e-006
field stddev 5.3982232705036e-006
field sum 0.69719121456981
field sqrsum 8.2501678961684e-006
field min 4e-007
field max 5.7091127e-005
statistic Basic.rack[6].node[3].app 	hops
field count 199508
field mean 3.2482958076869
field stddev 0.82907188817111
field sum 648061
field sqrsum 2242227
field min 2
field max 4
statistic Basic.rack[6].node[4].app 	throughput
field count 199542
field mean 99771.5
field stddev 57602.958044705
field sum 19908604653
field sqrsum 2.6484084959808e+015
field min 1
field max 199542
statistic Basic.rack[6].node[4].app 	"End-to-End Delay"
field count 199542
field mean 3.4987253875916e-006
field stddev 5.411400947391e-006
field sum 0.6981426612908
field sqrsum 8.2858204794658e-006
field min 4e-007
field max 6.0813987e-005
statistic Basic.rack[6].node[4].app 	hops
field count 199542
field mean 3.2487947399545
field stddev 0.82874251983447
field sum 648271
field sqrsum 2243147
field min 2
field max 4
statistic Basic.rack[6].node[5].app 	throughput
field count 200058
field mean 100029.5
field stddev 57751.914414156
field sum 20011701711
field sqrsum 2.6690073511667e+015
field min 1
field max 200058
statistic Basic.rack[6].node[5].app 	"End-to-End Delay"
field count 200058
field mean 3.4800217583691e-006
field stddev 5.4150073017565e-006
field sum 0.6962061929358
field sqrsum 8.2889448866757e-006
field min 4e-007
field max 6.9849121e-005
statistic Basic.rack[6].node[5].app 	hops
field count 200058
field mean 3.2501274630357
field stddev 0.82973001630469
field sum 650214
field sqrsum 2251008
field min 2
field max 4
statistic Basic.rack[6].node[6].app 	throughput
field count 200313
field mean 100157
field stddev 57825.526573478
field sum 20062749141
field sqrsum 2.6792263333705e+015
field min 1
field max 200313
statistic Basic.rack[6].node[6].app 	"End-to-End Delay"
field count 200313
field mean 3.4790527421076e-006
field stddev 5.3905181319102e-006
field sum 0.6968994919298
field sqrsum 8.2451532324102e-006
field min 4e-007
field max 6.6467657e-005
statistic Basic.rack[6].node[6].app 	hops
field count 200313
field mean 3.2489853379461
field stddev 0.82933185570057
field sum 650814
field sqrsum 2252258
field min 2
field max 4
statistic Basic.rack[6].node[7].app 	throughput
field count 200442
field mean 100221.5
field stddev 57862.765665841
field sum 20088597903
field sqrsum 2.6844058567814e+015
field min 1
field max 200442
statistic Basic.rack[6].node[7].app 	"End-to-End Delay"
field count 200442
field mean 3.5047059458338e-006
field stddev 5.4383974139288e-006
field sum 0.70249026919482
field sqrsum 8.3902981990994e-006
field min 4e-007
field max 6.4460195e-005
statistic Basic.rack[6].node[7].app 	hops
field count 200442
field mean 3.2489099091009
field stddev 0.82890404658532
field sum 651218
field sqrsum 2253468
field min 2
field max 4
statistic Basic.rack[6].node[8].app 	throughput
field count 199298
field mean 99649.5
field stddev 57532.521311863
field sum 19859946051
field sqrsum 2.6387049720301e+015
field min 1
field max 199298
statistic Basic.rack[6].node[8].app 	"End-to-End Delay"
field count 199298
field mean 3.4981400570242e-006
field stddev 5.4041063922266e-006
field sum 0.6971723170848
field sqrsum 8.2591489195169e-006
field min 4e-007
field max 5.7023166e-005
statistic Basic.rack[6].node[8].app 	hops
field count 199298
field mean 3.2532689740991
field stddev 0.8273730452797
field sum 648370
field sqrsum 2245750
field min 2
field max 4
statistic Basic.rack[6].node[9].app 	throughput
field count 200617
field mean 100309
field stddev 57913.283814395
field sum 20123690653
field sqrsum 2.6914430063855e+015
field min 1
field max 200617
statistic Basic.rack[6].node[9].app 	"End-to-End Delay"
field count 200617
field mean 3.5190101136635e-006
field stddev 5.442383121751e-006
field sum 0.70597325197284
field sqrsum 8.4264794554234e-006
field min 4e-007
field max 6.0055043e-005
statistic Basic.rack[6].node[9].app 	hops
field count 200617
field mean 3.2482690898578
field stddev 0.82830799661991
field sum 651658
field sqrsum 2254402
field min 2
field max 4
statistic Basic.rack[6].eps.queue[0] 	dropsum
field count 0
field mean nan
field stddev nan
field sum 0
field sqrsum 0
field min nan
field max nan
statistic Basic.rack[6].eps.queue[1] 	dropsum
field count 0
field mean nan
field stddev nan
field sum 0
field sqrsum 0
field min nan
field max nan
statistic Basic.rack[6].eps.queue[2] 	dropsum
field count 0
field mean nan
field stddev nan
field sum 0
field sqrsum 0
field min nan
field max nan
statistic Basic.rack[6].eps.queue[3] 	dropsum
field count 0
field mean nan
field stddev nan
field sum 0
field sqrsum 0
field min nan
field max nan
statistic Basic.rack[7].node[0].app 	throughput
field count 199948
field mean 99974.5
field stddev 57720.16014935
field sum 19989701326
field sqrsum 2.6646071970545e+015
field min 1
field max 199948
statistic Basic.rack[7].node[0].app 	"End-to-End Delay"
field count 199948
field mean 3.5133506249666e-006
field stddev 5.4413099706646e-006
field sum 0.70248743076082
field sqrsum 8.388086276993e-006
field min 4e-007
field max 5.6859883e-005
statistic Basic.rack[7].node[0].app 	hops
field count 199948
field mean 3.249599895973
field stddev 0.82810797430343
field sum 649751
field sqrsum 2248547
field min 2
field max 4
statistic Basic.rack[7].node[1].app 	throughput
field count 199783
field mean 99892
field stddev 57672.528752142
field sum 19956723436
field sqrsum 2.6580160377174e+015
field min 1
field max 199783
statistic Basic.rack[7].node[1].app 	"End-to-End Delay"
field count 199783
field mean 3.4977389388827e-006
field stddev 5.4198856330327e-006
field sum 0.69878877842681
field sqrsum 8.3128089904487e-006
field min 4e-007
field max 5.8577994e-005
statistic Basic.rack[7].node[1].app 	hops
field count 199783
field mean 3.2525339993893
field stddev 0.8279812957504
field sum 649801
field sqrsum 2250461
field min 2
field max 4
statistic Basic.rack[7].node[2].app 	throughput
field count 199863
field mean 99932
field stddev 57695.62276291
field sum 19972709316
field sqrsum 2.6612103922522e+015
field min 1
field max 199863
statistic Basic.rack[7].node[2].app 	"End-to-End Delay"
field count 199863
field mean 3.5056191583825e-006
field stddev 5.435718428919e-006
field sum 0.7006435618518
field sqrsum 8.3615189705153e-006
field min 4e-007
field max 6.033284e-005
statistic Basic.rack[7].node[2].app 	hops
field count 199863
field mean 3.2528682147271
field stddev 0.82756209386534
field sum 650128
field sqrsum 2251658
field min 2
field max 4
statistic Basic.rack[7].node[3].app 	throughput
field count 200792
field mean 100396.5
field stddev 57963.801962949
field sum 20158814028
field sqrsum 2.6984924438115e+015
field min 1
field max 200792
statistic Basic.rack[7].node[3].app 	"End-to-End Delay"
field count 200792
field mean 3.4730047484651e-006
field stddev 5.3829545661354e-006
field sum 0.69735156945381
field sqrsum 8.2400654583684e-006
field min 4e-007
field max 5.793126e-005
statistic Basic.rack[7].node[3].app 	hops
field count 200792
field mean 3.2454131638711
field stddev 0.83063236445237
field sum 651653
field sqrsum 2253419
field min 2
field max 4
statistic Basic.rack[7].node[4].app 	throughput
field count 200290
field mean 100145.5
field stddev 57818.887045382
field sum 20058142195
field sqrsum 2.6783035528718e+015
field min 1
field max 200290
statistic Basic.rack[7].node[4].app 	"End-to-End Delay"
field count 200290
field mean 3.5126258815509e-006
field stddev 5.4309026139578e-006
field sum 0.70354383781584
field sqrsum 8.3787509032018e-006
field min 4e-007
field max 5.9029521e-005
statistic Basic.rack[7].node[4].app 	hops
field count 200290
field mean 3.2487642917769
field stddev 0.82842616260932
field sum 650695
field sqrsum 2251411
field min 2
field max 4
statistic Basic.rack[7].node[5].app 	throughput
field count 199627
field mean 99814
field stddev 57627.495431145
field sum 19925569378
field sqrsum 2.6517944006711e+015
field min 1
field max 199627
statistic Basic.rack[7].node[5].app 	"End-to-End Delay"
field count 199627
field mean 3.491071863319e-006
field stddev 5.4182602601229e-006
field sum 0.69691220285879
field sqrsum 8.2934997103414e-006
field min 4e-007
field max 6.3449692e-005
statistic Basic.rack[7].node[5].app 	hops
field count 199627
field mean 3.2504019997295
field stddev 0.82882167203105
field sum 648868
field sqrsum 2246214
field min 2
field max 4
statistic Basic.rack[7].node[6].app 	throughput
field count 199677
field mean 99839
field stddev 57641.929187875
field sum 19935552003
field sqrsum 2.6537874567194e+015
field min 1
field max 199677
statistic Basic.rack[7].node[6].app 	"End-to-End Delay"
field count 199677
field mean 3.4915455542641e-006
field stddev 5.4267401452024e-006
field sum 0.6971813416388
field sqrsum 8.3146004938376e-006
field min 4e-007
field max 6.5960976e-005
statistic Basic.rack[7].node[6].app 	hops
field count 199677
field mean 3.2461725686984
field stddev 0.83018579524383
field sum 648186
field sqrsum 2241742
field min 2
field max 4
statistic Basic.rack[7].node[7].app 	throughput
field count 199605
field mean 99803
field stddev 57621.144578184
field sum 19921177815
field sqrsum 2.6509177722347e+015
field min 1
field max 199605
statistic Basic.rack[7].node[7].app 	"End-to-End Delay"
field count 199605
field mean 3.4915663754105e-006
field stddev 5.3956331897087e-006
field sum 0.6969341063638
field sqrsum 8.2444345036567e-006
field min 4e-007
field max 7.1042798e-005
statistic Basic.rack[7].node[7].app 	hops
field count 199605
field mean 3.2485458781093
field stddev 0.82906145196242
field sum 648426
field sqrsum 2243638
field min 2
field max 4
statistic Basic.rack[7].node[8].app 	throughput
field count 200733
field mean 100367
field stddev 57946.770130008
field sum 20146969011
field sqrsum 2.6961144026464e+015
field min 1
field max 200733
statistic Basic.rack[7].node[8].app 	"End-to-End Delay"
field count 200733
field mean 3.451602475033e-006
field stddev 5.3614411705834e-006
field sum 0.6928505196208
field sqrsum 8.16149623112e-006
field min 4e-007
field max 6.006684e-005
statistic Basic.rack[7].node[8].app 	hops
field count 200733
field mean 3.2500684989513
field stddev 0.83043215106963
field sum 652396
field sqrsum 2258760
field min 2
field max 4
statistic Basic.rack[7].node[9].app 	throughput
field count 200012
field mean 100006.5
field stddev 57738.635357965
field sum 20002500078
field sqrsum 2.6671666979006e+015
field min 1
field max 200012
statistic Basic.rack[7].node[9].app 	"End-to-End Delay"
field count 200012
field mean 3.4628746037978e-006
field stddev 5.3752301421661e-006
field sum 0.69261647525481
field sqrsum 8.177381642672e-006
field min 4e-007
field max 6.7223665e-005
statistic Basic.rack[7].node[9].app 	hops
field count 200012
field mean 3.2534197948123
field stddev 0.82911503758872
field sum 650723
field sqrsum 2254569
field min 2
field max 4
statistic Basic.rack[7].eps.queue[0] 	dropsum
field count 0
field mean nan
field stddev nan
field sum 0
field sqrsum 0
field min nan
field max nan
statistic Basic.rack[7].eps.queue[1] 	dropsum
field count 0
field mean nan
field stddev nan
field sum 0
field sqrsum 0
field min nan
field max nan
statistic Basic.rack[7].eps.queue[2] 	dropsum
field count 0
field mean nan
field stddev nan
field sum 0
field sqrsum 0
field min nan
field max nan
statistic Basic.rack[7].eps.queue[3] 	dropsum
field count 0
field mean nan
field stddev nan
field sum 0
field sqrsum 0
field min nan
field max nan
statistic Basic.rack[8].node[0].app 	throughput
field count 199114
field mean 99557.5
field stddev 57479.405087098
field sum 19823292055
field sqrsum 2.6314032572569e+015
field min 1
field max 199114
statistic Basic.rack[8].node[0].app 	"End-to-End Delay"
field count 199114
field mean 6.2551103590366e-006
field stddev 6.5723924174912e-006
field sum 1.2454800440292
field sqrsum 1.6391568387846e-005
field min 4e-007
field max 7.2857667e-005
statistic Basic.rack[8].node[0].app 	hops
field count 199114
field mean 2.9962182468335
field stddev 0.70578323025408
field sum 596589
field sqrsum 1886695
field min 2
field max 4
statistic Basic.rack[8].node[1].app 	throughput
field count 199945
field mean 99973
field stddev 57719.294123947
field sum 19989101485
field sqrsum 2.664487260646e+015
field min 1
field max 199945
statistic Basic.rack[8].node[1].app 	"End-to-End Delay"
field count 199945
field mean 6.2467959349631e-006
field stddev 6.57824992355e-006
field sum 1.2490156132162
field sqrsum 1.6454596757846e-005
field min 4e-007
field max 7.4084319e-005
statistic Basic.rack[8].node[1].app 	hops
field count 199945
field mean 2.9970992022806
field stddev 0.70618072844602
field sum 599255
field sqrsum 1895737
field min 2
field max 4
statistic Basic.rack[8].node[2].app 	throughput
field count 199695
field mean 99848
field stddev 57647.125340298
field sum 19939146360
field sqrsum 2.6545052012889e+015
field min 1
field max 199695
statistic Basic.rack[8].node[2].app 	"End-to-End Delay"
field count 199695
field mean 6.243810752118e-006
field stddev 6.5712943485423e-006
field sum 1.2468577881442
field sqrsum 1.6408312282733e-005
field min 4e-007
field max 6.6866293e-005
statistic Basic.rack[8].node[2].app 	hops
field count 199695
field mean 2.9991687323168
field stddev 0.70616731631684
field sum 598919
field sqrsum 1895841
field min 2
field max 4
statistic Basic.rack[8].node[3].app 	throughput
field count 199751
field mean 99876
field stddev 57663.291147835
field sum 19950330876
field sqrsum 2.6567390119849e+015
field min 1
field max 199751
statistic Basic.rack[8].node[3].app 	"End-to-End Delay"
field count 199751
field mean 6.2471122614414e-006
field stddev 6.5914891030437e-006
field sum 1.2478669213352
field sqrsum 1.647424853188e-005
field min 4e-007
field max 7.6138002e-005
statistic Basic.rack[8].node[3].app 	hops
field count 199751
field mean 3.00014518075
field stddev 0.70694390941759
field sum 599282
field sqrsum 1897762
field min 2
field max 4
statistic Basic.rack[8].node[4].app 	throughput
field count 199639
field mean 99820
field stddev 57630.95953276
field sum 19927964980
field sqrsum 2.6522726430831e+015
field min 1
field max 199639
statistic Basic.rack[8].node[4].app 	"End-to-End Delay"
field count 199639
field mean 6.2660272141675e-006
field stddev 6.5863504266746e-006
field sum 1.2509434070092
field sqrsum 1.6498744255971e-005
field min 4e-007
field max 7.7112501e-005
statistic Basic.rack[8].node[4].app 	hops
field count 199639
field mean 3.0020486978997
field stddev 0.70516725147721
field sum 599326
field sqrsum 1898478
field min 2
field max 4
statistic Basic.rack[8].node[5].app 	throughput
field count 199414
field mean 99707.5
field stddev 57566.007627476
field sum 19883071405
field sqrsum 2.6433151617949e+015
field min 1
field max 199414
statistic Basic.rack[8].node[5].app 	"End-to-End Delay"
field count 199414
field mean 6.225045686277e-006
field stddev 6.5781902025825e-006
field sum 1.2413612604832
field sqrsum 1.6356646819771e-005
field min 4e-007
field max 6.5154679e-005
statistic Basic.rack[8].node[5].app 	hops
field count 199414
field mean 3.0006870129479
field stddev 0.7077178582599
field sum 598379
field sqrsum 1895427
field min 2
field max 4
statistic Basic.rack[8].node[6].app 	throughput
field count 200641
field mean 100321
field stddev 57920.212017625
field sum 20128505761
field sqrsum 2.6924090590971e+015
field min 1
field max 200641
statistic Basic.rack[8].node[6].app 	"End-to-End Delay"
field count 200641
field mean 6.2509710645388e-006
field stddev 6.5814711458091e-006
field sum 1.2542010853601
field sqrsum 1.6530849270286e-005
field min 4e-007
field max 5.9769434e-005
statistic Basic.rack[8].node[6].app 	hops
field count 200641
field mean 2.9995215334852
field stddev 0.70607678631006
field sum 601827
field sqrsum 1905221
field min 2
field max 4
statistic Basic.rack[8].node[7].app 	throughput
field count 199659
field mean 99830
field stddev 57636.733035452
field sum 19931957970
field sqrsum 2.6530698415408e+015
field min 1
field max 199659
statistic Basic.rack[8].node[7].app 	"End-to-End Delay"
field count 199659
field mean 6.2204721564628e-006
field stddev 6.5729079881379e-006
field sum 1.2419732502872
field sqrsum 1.6351508439747e-005
field min 4e-007
field max 6.645834e-005
statistic Basic.rack[8].node[7].app 	hops
field count 199659
field mean 2.999454069188
field stddev 0.70792066774924
field sum 598868
field sqrsum 1896336
field min 2
field max 4
statistic Basic.rack[8].node[8].app 	throughput
field count 199944
field mean 99972.5
field stddev 57719.005448812
field sum 19988901540
field sqrsum 2.664447282643e+015
field min 1
field max 199944
statistic Basic.rack[8].node[8].app 	"End-to-End Delay"
field count 199944
field mean 6.2137988385357e-006
field stddev 6.5616953270914e-006
field sum 1.2424117949722
field sqrsum 1.6328811898498e-005
field min 4e-007
field max 6.4802699e-005
statistic Basic.rack[8].node[8].app 	hops
field count 199944
field mean 3.0006151722482
field stddev 0.70798833125982
field sum 599955
field sqrsum 1900455
field min 2
field max 4
statistic Basic.rack[8].node[9].app 	throughput
field count 200402
field mean 100201.5
field stddev 57851.218660457
field sum 20080581003
field sqrsum 2.6827990896358e+015
field min 1
field max 200402
statistic Basic.rack[8].node[9].app 	"End-to-End Delay"
field count 200402
field mean 6.2159792299736e-006
field stddev 6.5593884146236e-006
field sum 1.2456946696452
field sqrsum 1.6365580724309e-005
field min 4e-007
field max 7.0816945e-005
statistic Basic.rack[8].node[9].app 	hops
field count 200402
field mean 2.999875250746
field stddev 0.70781387274273
field sum 601181
field sqrsum 1903869
field min 2
field max 4
statistic Basic.rack[8].eps.queue[0] 	dropsum
field count 0
field mean nan
field stddev nan
field sum 0
field sqrsum 0
field min nan
field max nan
statistic Basic.rack[8].eps.queue[1] 	dropsum
field count 0
field mean nan
field stddev nan
field sum 0
field sqrsum 0
field min nan
field max nan
statistic Basic.rack[8].eps.queue[2] 	dropsum
field count 0
field mean nan
field stddev nan
field sum 0
field sqrsum 0
field min nan
field max nan
statistic Basic.rack[8].eps.queue[3] 	dropsum
field count 0
field mean nan
field stddev nan
field sum 0
field sqrsum 0
field min nan
field max nan
statistic Basic.rack[9].node[0].app 	throughput
field count 199415
field mean 99708
field stddev 57566.296302611
field sum 19883270820
field sqrsum 2.6433549281371e+015
field min 1
field max 199415
statistic Basic.rack[9].node[0].app 	"End-to-End Delay"
field count 199415
field mean 6.2254251076162e-006
field stddev 6.5685120124679e-006
field sum 1.2414431478353
field sqrsum 1.6332298178665e-005
field min 4e-007
field max 6.8738142e-005
statistic Basic.rack[9].node[0].app 	hops
field count 199415
field mean 2.9998194719555
field stddev 0.70730175705087
field sum 598209
field sqrsum 1894281
field min 2
field max 4
statistic Basic.rack[9].node[1].app 	throughput
field count 199846
field mean 99923.5
field stddev 57690.715285622
field sum 19969311781
field sqrsum 2.6605313778944e+015
field min 1
field max 199846
statistic Basic.rack[9].node[1].app 	"End-to-End Delay"
field count 199846
field mean 6.2589634281853e-006
field stddev 6.6007555095818e-006
field sum 1.2508288052691
field sqrsum 1.6536133060694e-005
field min 4e-007
field max 7.6029128e-005
statistic Basic.rack[9].node[1].app 	hops
field count 199846
field mean 3.0008856819751
field stddev 0.70603862949903
field sum 599715
field sqrsum 1899297
field min 2
field max 4
statistic Basic.rack[9].node[2].app 	throughput
field count 201214
field mean 100607.5
field stddev 58085.622869749
field sum 20243637505
field sqrsum 2.7155422658332e+015
field min 1
field max 201214
statistic Basic.rack[9].node[2].app 	"End-to-End Delay"
field count 201214
field mean 6.2463233746813e-006
field stddev 6.5842540151043e-006
field sum 1.2568477115131
field sqrsum 1.6573743888257e-005
field min 4e-007
field max 6.357741e-005
statistic Basic.rack[9].node[2].app 	hops
field count 201214
field mean 3.0029669903685
field stddev 0.70654684509872
field sum 604239
field sqrsum 1914957
field min 2
field max 4
statistic Basic.rack[9].node[3].app 	throughput
field count 199468
field mean 99734.5
field stddev 57581.596084745
field sum 19893841246
field sqrsum 2.6454631150518e+015
field min 1
field max 199468
statistic Basic.rack[9].node[3].app 	"End-to-End Delay"
field count 199468
field mean 6.2375949118616e-006
field stddev 6.5757365892896e-006
field sum 1.2442005818792
field sqrsum 1.6385834471078e-005
field min 4e-007
field max 7.0923438e-005
statistic Basic.rack[9].node[3].app 	hops
field count 199468
field mean 3.0020103475244
field stddev 0.70668371655979
field sum 598805
field sqrsum 1897233
field min 2
field max 4
statistic Basic.rack[9].node[4].app 	throughput
field count 199439
field mean 99720
field stddev 57573.224505841
field sum 19888057080
field sqrsum 2.6443094400044e+015
field min 1
field max 199439
statistic Basic.rack[9].node[4].app 	"End-to-End Delay"
field count 199439
field mean 6.230699129374e-006
field stddev 6.5786695911852e-006
field sum 1.2426444036632
field sqrsum 1.6373999383825e-005
field min 4e-007
field max 7.413924e-005
statistic Basic.rack[9].node[4].app 	hops
field count 199439
field mean 3.0020006117159
field stddev 0.70728120433975
field sum 598716
field sqrsum 1897114
field min 2
field max 4
statistic Basic.rack[9].node[5].app 	throughput
field count 199640
field mean 99820.5
field stddev 57631.248207895
field sum 19928164620
field sqrsum 2.6523124992127e+015
field min 1
field max 199640
statistic Basic.rack[9].node[5].app 	"End-to-End Delay"
field count 199640
field mean 6.2084295575197e-006
field stddev 6.5518884490572e-006
field sum 1.2394508768632
field sqrsum 1.6264995174337e-005
field min 4e-007
field max 6.9690687e-005
statistic Basic.rack[9].node[5].app 	hops
field count 199640
field mean 3.0005059106392
field stddev 0.7074660145527
field sum 599021
field sqrsum 1897287
field min 2
field max 4
statistic Basic.rack[9].node[6].app 	throughput
field count 200011
field mean 100006
field stddev 57738.34668283
field sum 20002300066
field sqrsum 2.6671266931005e+015
field min 1
field max 200011
statistic Basic.rack[9].node[6].app 	"End-to-End Delay"
field count 200011
field mean 6.2293610790566e-006
field stddev 6.5705838766756e-006
field sum 1.2459407387832
field sqrsum 1.6396360966798e-005
field min 4e-007
field max 7.1701615e-005
statistic Basic.rack[9].node[6].app 	hops
field count 200011
field mean 3.0019148946808
field stddev 0.70697690355455
field sum 600416
field sqrsum 1902366
field min 2
field max 4
statistic Basic.rack[9].node[7].app 	throughput
field count 199856
field mean 99928.5
field stddev 57693.602036968
field sum 19971310296
field sqrsum 2.660930784115e+015
field min 1
field max 199856
statistic Basic.rack[9].node[7].app 	"End-to-End Delay"
field count 199856
field mean 6.2176988581891e-006
field stddev 6.578960920912e-006
field sum 1.2426444230022
field sqrsum 1.6376658174428e-005
field min 4e-007
field max 8.2173717e-005
statistic Basic.rack[9].node[7].app 	hops
field count 199856
field mean 3.0003752701945
field stddev 0.70793234579527
field sum 599643
field sqrsum 1899315
field min 2
field max 4
statistic Basic.rack[9].node[8].app 	throughput
field count 200711
field mean 100356
field stddev 57940.419277047
field sum 20142553116
field sqrsum 2.6952280331614e+015
field min 1
field max 200711
statistic Basic.rack[9].node[8].app 	"End-to-End Delay"
field count 200711
field mean 6.2073919204937e-006
field stddev 6.581594364498e-006
field sum 1.2458918397542
field sqrsum 1.6427971158567e-005
field min 4e-007
field max 7.4602957e-005
statistic Basic.rack[9].node[8].app 	hops
field count 200711
field mean 2.9992277453652
field stddev 0.7088797424569
field sum 601978
field sqrsum 1906328
field min 2
field max 4
statistic Basic.rack[9].node[9].app 	throughput
field count 199438
field mean 99719.5
field stddev 57572.935830707
field sum 19887857641
field sqrsum 2.6442696640897e+015
field min 1
field max 199438
statistic Basic.rack[9].node[9].app 	"End-to-End Delay"
field count 199438
field mean 6.2274869573763e-006
field stddev 6.5630973887392e-006
field sum 1.2419975438052
field sqrsum 1.6325122170706e-005
field min 4e-007
field max 7.8541463e-005
statistic Basic.rack[9].node[9].app 	hops
field count 199438
field mean 2.9983252940764
field stddev 0.70672000388943
field sum 597980
field sqrsum 1892548
field min 2
field max 4
statistic Basic.rack[9].eps.queue[0] 	dropsum
field count 0
field mean nan
field stddev nan
field sum 0
field sqrsum 0
field min nan
field max nan
statistic Basic.rack[9].eps.queue[1] 	dropsum
field count 0
field mean nan
field stddev nan
field sum 0
field sqrsum 0
field min nan
field max nan
statistic Basic.rack[9].eps.queue[2] 	dropsum
field count 0
field mean nan
field stddev nan
field sum 0
field sqrsum 0
field min nan
field max nan
statistic Basic.rack[9].eps.queue[3] 	dropsum
field count 0
field mean nan
field stddev nan
field sum 0
field sqrsum 0
field min nan
field max nan
statistic Basic.rack[10].node[0].app 	throughput
field count 200032
field mean 100016.5
field stddev 57744.408860657
field sum 20006500528
field sqrsum 2.6679668779114e+015
field min 1
field max 200032
statistic Basic.rack[10].node[0].app 	"End-to-End Delay"
field count 200032
field mean 3.471472256813e-006
field stddev 5.3843232905832e-006
field sum 0.69440553847481
field sqrsum 8.2096957403522e-006
field min 4e-007
field max 6.8495569e-005
statistic Basic.rack[10].node[0].app 	hops
field count 200032
field mean 3.2501499760038
field stddev 0.82915524194763
field sum 650134
field sqrsum 2250554
field min 2
field max 4
statistic Basic.rack[10].node[1].app 	throughput
field count 200108
field mean 100054.5
field stddev 57766.348170886
field sum 20021705886
field sqrsum 2.6710090215258e+015
field min 1
field max 200108
statistic Basic.rack[10].node[1].app 	"End-to-End Delay"
field count 200108
field mean 3.4911671953136e-006
field stddev 5.4182529476808e-006
field sum 0.69861048511982
field sqrsum 8.3136002577183e-006
field min 4e-007
field max 6.7765032e-005
statistic Basic.rack[10].node[1].app 	hops
field count 200108
field mean 3.2479910848142
field stddev 0.82955653473212
field sum 649949
field sqrsum 2248735
field min 2
field max 4
statistic Basic.rack[10].node[2].app 	throughput
field count 199028
field mean 99514.5
field stddev 57454.579025522
field sum 19806171906
field sqrsum 2.6279951234622e+015
field min 1
field max 199028
statistic Basic.rack[10].node[2].app 	"End-to-End Delay"
field count 199028
field mean 3.4855919433738e-006
field stddev 5.4032233450334e-006
field sum 0.6937303933058
field sqrsum 8.2286190107347e-006
field min 4e-007
field max 6.5257478e-005
statistic Basic.rack[10].node[2].app 	hops
field count 199028
field mean 3.249613119762
field stddev 0.82911425641542
field sum 646764
field sqrsum 2238550
field min 2
field max 4
statistic Basic.rack[10].node[3].app 	throughput
field count 200320
field mean 100160.5
field stddev 57827.54729942
field sum 20064151360
field sqrsum 2.6795072216739e+015
field min 1
field max 200320
statistic Basic.rack[10].node[3].app 	"End-to-End Delay"
field count 200320
field mean 3.4816247931351e-006
field stddev 5.3803366223401e-006
field sum 0.69743907856083
field sqrsum 8.2270600406297e-006
field min 4e-007
field max 6.830421e-005
statistic Basic.rack[10].node[3].app 	hops
field count 200320
field mean 3.2537040734824
field stddev 0.82775503522602
field sum 651782
field sqrsum 2257960
field min 2
field max 4
statistic Basic.rack[10].node[4].app 	throughput
field count 199586
field mean 99793.5
field stddev 57615.659750627
field sum 19917385491
field sqrsum 2.650160839533e+015
field min 1
field max 199586
statistic Basic.rack[10].node[4].app 	"End-to-End Delay"
field count 199586
field mean 3.4704076089345e-006
field stddev 5.3960000885473e-006
field sum 0.6926447730368
field sqrsum 8.2150396027195e-006
field min 4e-007
field max 7.0155137e-005
statistic Basic.rack[10].node[4].app 	hops
field count 199586
field mean 3.2514755543976
field stddev 0.82939939215129
field sum 648949
field sqrsum 2247337
field min 2
field max 4
statistic Basic.rack[10].node[5].app 	throughput
field count 200024
field mean 100012.5
field stddev 57742.09945958
field sum 20004900300
field sqrsum 2.6676467867049e+015
field min 1
field max 200024
statistic Basic.rack[10].node[5].app 	"End-to-End Delay"
field count 200024
field mean 3.473269566806e-006
field stddev 5.382961446313e-006
field sum 0.6947372718308
field sqrsum 8.2089310639746e-006
field min 4e-007
field max 5.6967816e-005
statistic Basic.rack[10].node[5].app 	hops
field count 200024
field mean 3.2497550293965
field stddev 0.82947623018283
field sum 650029
field sqrsum 2250057
field min 2
field max 4
statistic Basic.rack[10].node[6].app 	throughput
field count 199688
field mean 99844.5
field stddev 57645.104614356
field sum 19937748516
field sqrsum 2.6542260630248e+015
field min 1
field max 199688
statistic Basic.rack[10].node[6].app 	"End-to-End Delay"
field count 199688
field mean 3.4730758593545e-006
field stddev 5.3670139666996e-006
field sum 0.69353157220279
field sqrsum 8.1606396302858e-006
field min 4e-007
field max 6.5262192e-005
statistic Basic.rack[10].node[6].app 	hops
field count 199688
field mean 3.2504507030968
field stddev 0.82913701213549
field sum 649076
field sqrsum 2247068
field min 2
field max 4
statistic Basic.rack[10].node[7].app 	throughput
field count 199712
field mean 99856.5
field stddev 57652.032817586
field sum 19942541328
field sqrsum 2.6551831899788e+015
field min 1
field max 199712
statistic Basic.rack[10].node[7].app 	"End-to-End Delay"
field count 199712
field mean 3.470964558328e-006
field stddev 5.3878435331232e-006
field sum 0.69319327387279
field sqrsum 8.2034315332234e-006
field min 4e-007
field max 6.4264828e-005
statistic Basic.rack[10].node[7].app 	hops
field count 199712
field mean 3.2484077070982
field stddev 0.83002891402141
field sum 648746
field sqrsum 2244982
field min 2
field max 4
statistic Basic.rack[10].node[8].app 	throughput
field count 199935
field mean 99968
field stddev 57716.407372601
field sum 19987102080
field sqrsum 2.6640874986106e+015
field min 1
field max 199935
statistic Basic.rack[10].node[8].app 	"End-to-End Delay"
field count 199935
field mean 3.4646121154816e-006
field stddev 5.370162360082e-006
field sum 0.69269722330881
field sqrsum 8.1657525964753e-006
field min 4e-007
field max 7.1355745e-005
statistic Basic.rack[10].node[8].app 	hops
field count 199935
field mean 3.2488508765349
field stddev 0.83023540843513
field sum 649559
field sqrsum 2248133
field min 2
field max 4
statistic Basic.rack[10].node[9].app 	throughput
field count 200653
field mean 100327
field stddev 57923.67611924
field sum 20130913531
field sqrsum 2.6928921721283e+015
field min 1
field max 200653
statistic Basic.rack[10].node[9].app 	"End-to-End Delay"
field count 200653
field mean 3.4983508603899e-006
field stddev 5.4156885851805e-006
field sum 0.70195459518982
field sqrsum 8.3407429855871e-006
field min 4e-007
field max 6.1643523e-005
statistic Basic.rack[10].node[9].app 	hops
field count 200653
field mean 3.2488624640549
field stddev 0.82889109491485
field sum 651894
field sqrsum 2255774
field min 2
field max 4
statistic Basic.rack[10].eps.queue[0] 	dropsum
field count 0
field mean nan
field stddev nan
field sum 0
field sqrsum 0
field min nan
field max nan
statistic Basic.rack[10].eps.queue[1] 	dropsum
field count 0
field mean nan
field stddev nan
field sum 0
field sqrsum 0
field min nan
field max nan
statistic Basic.rack[10].eps.queue[2] 	dropsum
field count 0
field mean nan
field stddev nan
field sum 0
field sqrsum 0
field min nan
field max nan
statistic Basic.rack[10].eps.queue[3] 	dropsum
field count 0
field mean nan
field stddev nan
field sum 0
field sqrsum 0
field min nan
field max nan
statistic Basic.rack[11].node[0].app 	throughput
field count 199471
field mean 99736
field stddev 57582.462110148
field sum 19894439656
field sqrsum 2.6455824798945e+015
field min 1
field max 199471
statistic Basic.rack[11].node[0].app 	"End-to-End Delay"
field count 199471
field mean 3.4786124898646e-006
field stddev 5.3793168316807e-006
field sum 0.69388231196579
field sqrsum 8.185820955746e-006
field min 4e-007
field max 6.9995883e-005
statistic Basic.rack[11].node[0].app 	hops
field count 199471
field mean 3.2529891563185
field stddev 0.82800519108176
field sum 648877
field sqrsum 2247545
field min 2
field max 4
statistic Basic.rack[11].node[1].app 	throughput
field count 199772
field mean 99886.5
field stddev 57669.353325662
field sum 19954525878
field sqrsum 2.6575770139752e+015
field min 1
field max 199772
statistic Basic.rack[11].node[1].app 	"End-to-End Delay"
field count 199772
field mean 3.4867737943146e-006
field stddev 5.4096704883598e-006
field sum 0.69655977443781
field sqrsum 8.2749517477421e-006
field min 4e-007
field max 9.0371278e-005
statistic Basic.rack[11].node[1].app 	hops
field count 199772
field mean 3.2481729171255
field stddev 0.82967981632557
field sum 648894
field sqrsum 2245236
field min 2
field max 4
statistic Basic.rack[11].node[2].app 	throughput
field count 199607
field mean 99804
field stddev 57621.721928453
field sum 19921577028
field sqrsum 2.6509974577443e+015
field min 1
field max 199607
[...]
field mean 99802
field stddev 57620.567227915
field sum 19920778606
field sqrsum 2.6508380883218e+015
field min 1
field max 199603
statistic Basic.rack[13].node[2].app 	"End-to-End Delay"
field count 199603
field mean 6.2211890962924e-006
field stddev 6.5715031245183e-006
field sum 1.2417680071872
field sqrsum 1.6345016757529e-005
field min 4e-007
field max 6.4853848e-005
statistic Basic.rack[13].node[2].app 	hops
field count 199603
field mean 2.9993386872943
field stddev 0.70737211593426
field sum 598677
field sqrsum 1895511
field min 2
field max 4
statistic Basic.rack[13].node[3].app 	throughput
field count 199737
field mean 99869
field stddev 57659.249695951
field sum 19947534453
field sqrsum 2.6561804418707e+015
field min 1
field max 199737
statistic Basic.rack[13].node[3].app 	"End-to-End Delay"
field count 199737
field mean 6.2115626723153e-006
field stddev 6.5626676246379e-006
field sum 1.2406788934802
field sqrsum 1.6308905861289e-005
field min 4e-007
field max 7.7984338e-005
statistic Basic.rack[13].node[3].app 	hops
field count 199737
field mean 3.0006909085447
field stddev 0.7077363202463
field sum 599349
field sqrsum 1898507
field min 2
field max 4
statistic Basic.rack[13].node[4].app 	throughput
field count 199786
field mean 99893.5
field stddev 57673.394777546
field sum 19957322791
field sqrsum 2.6581357798561e+015
field min 1
field max 199786
statistic Basic.rack[13].node[4].app 	"End-to-End Delay"
field count 199786
field mean 6.2345563852483e-006
field stddev 6.5773512512608e-006
field sum 1.2455770819832
field sqrsum 1.6408629213151e-005
field min 4e-007
field max 8.0320587e-005
statistic Basic.rack[13].node[4].app 	hops
field count 199786
field mean 3.0009009640315
field stddev 0.70689912539475
field sum 599538
field sqrsum 1898988
field min 2
field max 4
statistic Basic.rack[13].node[5].app 	throughput
field count 199870
field mean 99935.5
field stddev 57697.643488852
field sum 19974108385
field sqrsum 2.6614900199761e+015
field min 1
field max 199870
statistic Basic.rack[13].node[5].app 	"End-to-End Delay"
field count 199870
field mean 6.2054160299408e-006
field stddev 6.5716290134422e-006
field sum 1.2402765019043
field sqrsum 1.6328035858205e-005
field min 4e-007
field max 7.5990392e-005
statistic Basic.rack[13].node[5].app 	hops
field count 199870
field mean 3.0003051983789
field stddev 0.70839508847351
field sum 599671
field sqrsum 1899495
field min 2
field max 4
statistic Basic.rack[13].node[6].app 	throughput
field count 199956
field mean 99978.5
field stddev 57722.469550427
field sum 19991300946
field sqrsum 2.6649270450726e+015
field min 1
field max 199956
statistic Basic.rack[13].node[6].app 	"End-to-End Delay"
field count 199956
field mean 6.2241428050483e-006
field stddev 6.5782185929761e-006
field sum 1.2445546987262
field sqrsum 1.6398930861768e-005
field min 4e-007
field max 7.9558892e-005
statistic Basic.rack[13].node[6].app 	hops
field count 199956
field mean 2.9994898877753
field stddev 0.70754673335281
field sum 599766
field sqrsum 1899094
field min 2
field max 4
statistic Basic.rack[13].node[7].app 	throughput
field count 200145
field mean 100073
field stddev 57777.029150866
field sum 20029110585
field sqrsum 2.6724909017267e+015
field min 1
field max 200145
statistic Basic.rack[13].node[7].app 	"End-to-End Delay"
field count 200145
field mean 6.2329091568124e-006
field stddev 6.5799605207078e-006
field sum 1.2474856031902
field sqrsum 1.6440875136716e-005
field min 4e-007
field max 6.8531142e-005
statistic Basic.rack[13].node[7].app 	hops
field count 200145
field mean 3.0015788553299
field stddev 0.70680818429459
field sum 600751
field sqrsum 1903189
field min 2
field max 4
statistic Basic.rack[13].node[8].app 	throughput
field count 199598
field mean 99799.5
field stddev 57619.123852242
field sum 19919780601
field sqrsum 2.6506388855258e+015
field min 1
field max 199598
statistic Basic.rack[13].node[8].app 	"End-to-End Delay"
field count 199598
field mean 6.2205544929371e-006
field stddev 6.5529503667153e-006
field sum 1.2416102356812
field sqrsum 1.6294430544891e-005
field min 4e-007
field max 6.3988734e-005
statistic Basic.rack[13].node[8].app 	hops
field count 199598
field mean 2.9990080060922
field stddev 0.70707597196677
field sum 598596
field sqrsum 1894984
field min 2
field max 4
statistic Basic.rack[13].node[9].app 	throughput
field count 200274
field mean 100137.5
field stddev 57814.268243229
field sum 20054937675
field sqrsum 2.6776617435945e+015
field min 1
field max 200274
statistic Basic.rack[13].node[9].app 	"End-to-End Delay"
field count 200274
field mean 6.2365636403987e-006
field stddev 6.6015372848927e-006
field sum 1.2490215465172
field sqrsum 1.6517558688255e-005
field min 4e-007
field max 7.1204213e-005
statistic Basic.rack[13].node[9].app 	hops
field count 200274
field mean 3.00190738688
field stddev 0.70744131273068
field sum 601204
field sqrsum 1904990
field min 2
field max 4
statistic Basic.rack[13].eps.queue[0] 	dropsum
field count 0
field mean nan
field stddev nan
field sum 0
field sqrsum 0
field min nan
field max nan
statistic Basic.rack[13].eps.queue[1] 	dropsum
field count 0
field mean nan
field stddev nan
field sum 0
field sqrsum 0
field min nan
field max nan
statistic Basic.rack[13].eps.queue[2] 	dropsum
field count 0
field mean nan
field stddev nan
field sum 0
field sqrsum 0
field min nan
field max nan
statistic Basic.rack[13].eps.queue[3] 	dropsum
field count 0
field mean nan
field stddev nan
field sum 0
field sqrsum 0
field min nan
field max nan
statistic Basic.rack[14].node[0].app 	throughput
field count 200570
field mean 100285.5
field stddev 57899.716083069
field sum 20114262735
field sqrsum 2.6895518225935e+015
field min 1
field max 200570
statistic Basic.rack[14].node[0].app 	"End-to-End Delay"
field count 200570
field mean 3.4825105037435e-006
field stddev 5.3952964363011e-006
field sum 0.69848713173583
field sqrsum 8.2708966483611e-006
field min 4e-007
field max 6.3317055e-005
statistic Basic.rack[14].node[0].app 	hops
field count 200570
field mean 3.2490003490053
field stddev 0.82923808342461
field sum 651652
field sqrsum 2255136
field min 2
field max 4
statistic Basic.rack[14].node[1].app 	throughput
field count 200273
field mean 100137
field stddev 57813.979568094
field sum 20054737401
field sqrsum 2.6776216339194e+015
field min 1
field max 200273
statistic Basic.rack[14].node[1].app 	"End-to-End Delay"
field count 200273
field mean 3.5024918818354e-006
field stddev 5.4300080586181e-006
field sum 0.70145455665081
field sqrsum 8.3618563100819e-006
field min 4e-007
field max 5.7565661e-005
statistic Basic.rack[14].node[1].app 	hops
field count 200273
field mean 3.2517763253159
field stddev 0.82813010184882
field sum 651243
field sqrsum 2255043
field min 2
field max 4
statistic Basic.rack[14].node[2].app 	throughput
field count 199946
field mean 99973.5
field stddev 57719.582799081
field sum 19989301431
field sqrsum 2.664527239049e+015
field min 1
field max 199946
statistic Basic.rack[14].node[2].app 	"End-to-End Delay"
field count 199946
field mean 3.472898803626e-006
field stddev 5.4026903519316e-006
field sum 0.6943922241898
field sqrsum 8.2477611339398e-006
field min 4e-007
field max 6.5561204e-005
statistic Basic.rack[14].node[2].app 	hops
field count 199946
field mean 3.2515029057846
field stddev 0.82946824635804
field sum 650125
field sqrsum 2251449
field min 2
field max 4
statistic Basic.rack[14].node[3].app 	throughput
field count 200012
field mean 100006.5
field stddev 57738.635357965
field sum 20002500078
field sqrsum 2.6671666979006e+015
field min 1
field max 200012
statistic Basic.rack[14].node[3].app 	"End-to-End Delay"
field count 200012
field mean 3.5052120339771e-006
field stddev 5.4221375423326e-006
field sum 0.70108446933982
field sqrsum 8.3376882196896e-006
field min 4e-007
field max 5.9327535e-005
statistic Basic.rack[14].node[3].app 	hops
field count 200012
field mean 3.2498500089995
field stddev 0.82820196931892
field sum 650009
field sqrsum 2249623
field min 2
field max 4
statistic Basic.rack[14].node[4].app 	throughput
field count 199863
field mean 99932
field stddev 57695.62276291
field sum 19972709316
field sqrsum 2.6612103922522e+015
field min 1
field max 199863
statistic Basic.rack[14].node[4].app 	"End-to-End Delay"
field count 199863
field mean 3.4831258404847e-006
field stddev 5.4097284692687e-006
field sum 0.6961479798568
field sqrsum 8.2737648473124e-006
field min 4e-007
field max 6.4709297e-005
statistic Basic.rack[14].node[4].app 	hops
field count 199863
field mean 3.2517574538559
field stddev 0.82889726730198
field sum 649906
field sqrsum 2250656
field min 2
field max 4
statistic Basic.rack[14].node[5].app 	throughput
field count 199736
field mean 99868.5
field stddev 57658.961020816
field sum 19947334716
field sqrsum 2.6561405470016e+015
field min 1
field max 199736
statistic Basic.rack[14].node[5].app 	"End-to-End Delay"
field count 199736
field mean 3.4816168819482e-006
field stddev 5.3984147498291e-006
field sum 0.69540422953281
field sqrsum 8.2419846038741e-006
field min 4e-007
field max 5.5238561e-005
statistic Basic.rack[14].node[5].app 	hops
field count 199736
field mean 3.2532843353226
field stddev 0.82816090179697
field sum 649798
field sqrsum 2250966
field min 2
field max 4
statistic Basic.rack[14].node[6].app 	throughput
field count 199820
field mean 99910.5
field stddev 57683.209732122
field sum 19964116110
field sqrsum 2.6594931087722e+015
field min 1
field max 199820
statistic Basic.rack[14].node[6].app 	"End-to-End Delay"
field count 199820
field mean 3.4799966091223e-006
field stddev 5.4121247404338e-006
field sum 0.69537292243482
field sqrsum 8.2728125653004e-006
field min 4e-007
field max 6.9542855e-005
statistic Basic.rack[14].node[6].app 	hops
field count 199820
field mean 3.2500650585527
field stddev 0.82970281057946
field sum 649428
field sqrsum 2248240
field min 2
field max 4
statistic Basic.rack[14].node[7].app 	throughput
field count 200476
field mean 100238.5
field stddev 57872.580620417
field sum 20095413526
field sqrsum 2.6857721131634e+015
field min 1
field max 200476
statistic Basic.rack[14].node[7].app 	"End-to-End Delay"
field count 200476
field mean 3.4892249649475e-006
field stddev 5.4157675981638e-006
field sum 0.69950586407281
field sqrsum 8.3207730653859e-006
field min 4e-007
field max 6.0341928e-005
statistic Basic.rack[14].node[7].app 	hops
field count 200476
field mean 3.2535216185479
field stddev 0.82800394996116
field sum 652253
field sqrsum 2259563
field min 2
field max 4
statistic Basic.rack[14].node[8].app 	throughput
field count 199667
field mean 99834
field stddev 57639.042436529
field sum 19933555278
field sqrsum 2.6533887656467e+015
field min 1
field max 199667
statistic Basic.rack[14].node[8].app 	"End-to-End Delay"
field count 199667
field mean 3.4665166948508e-006
field stddev 5.3906738994944e-006
field sum 0.69214898891078
field sqrsum 8.2015132155811e-006
field min 4e-007
field max 5.9344722e-005
statistic Basic.rack[14].node[8].app 	hops
field count 199667
field mean 3.2490847260689
field stddev 0.83039246891334
field sum 648735
field sqrsum 2245475
field min 2
field max 4
statistic Basic.rack[14].node[9].app 	throughput
field count 200795
field mean 100398
field stddev 57964.667988353
field sum 20159416410
field sqrsum 2.6986133985028e+015
field min 1
field max 200795
statistic Basic.rack[14].node[9].app 	"End-to-End Delay"
field count 200795
field mean 3.4930208555832e-006
field stddev 5.4187236947855e-006
field sum 0.70138112269684
field sqrsum 8.345766063164e-006
field min 4e-007
field max 5.85118e-005
statistic Basic.rack[14].node[9].app 	hops
field count 200795
field mean 3.2511666127145
field stddev 0.82838112990231
field sum 652818
field sqrsum 2260208
field min 2
field max 4
statistic Basic.rack[14].eps.queue[0] 	dropsum
field count 0
field mean nan
field stddev nan
field sum 0
field sqrsum 0
field min nan
field max nan
statistic Basic.rack[14].eps.queue[1] 	dropsum
field count 0
field mean nan
field stddev nan
field sum 0
field sqrsum 0
field min nan
field max nan
statistic Basic.rack[14].eps.queue[2] 	dropsum
field count 0
field mean nan
field stddev nan
field sum 0
field sqrsum 0
field min nan
field max nan
statistic Basic.rack[14].eps.queue[3] 	dropsum
field count 0
field mean nan
field stddev nan
field sum 0
field sqrsum 0
field min nan
field max nan
statistic Basic.rack[15].node[0].app 	throughput
field count 200862
field mean 100431.5
field stddev 57984.009222371
field sum 20172871953
field sqrsum 2.701315661773e+015
field min 1
field max 200862
statistic Basic.rack[15].node[0].app 	"End-to-End Delay"
field count 200862
field mean 3.4830295514673e-006
field stddev 5.4111558804379e-006
field sum 0.69960828176682
field sqrsum 8.3180885157803e-006
field min 4e-007
field max 5.9690569e-005
statistic Basic.rack[15].node[0].app 	hops
field count 200862
field mean 3.251456223676
field stddev 0.82913071327955
field sum 653094
field sqrsum 2261590
field min 2
field max 4
statistic Basic.rack[15].node[1].app 	throughput
field count 199972
field mean 99986.5
field stddev 57727.088352581
field sum 19994500378
field sqrsum 2.6655668178931e+015
field min 1
field max 199972
statistic Basic.rack[15].node[1].app 	"End-to-End Delay"
field count 199972
field mean 3.4638395080851e-006
field stddev 5.3852779099543e-006
field sum 0.69267091411079
field sqrsum 8.1987034765599e-006
field min 4e-007
field max 6.0971015e-005
statistic Basic.rack[15].node[1].app 	hops
field count 199972
field mean 3.250410057408
field stddev 0.83003522868381
field sum 649991
field sqrsum 2250509
field min 2
field max 4
statistic Basic.rack[15].node[2].app 	throughput
field count 201077
field mean 100539
field stddev 58046.074376309
field sum 20216080503
field sqrsum 2.7099992848947e+015
field min 1
field max 201077
statistic Basic.rack[15].node[2].app 	"End-to-End Delay"
field count 201077
field mean 3.5002284219371e-006
field stddev 5.4285256028212e-006
field sum 0.70381543039784
field sqrsum 8.3890013432506e-006
field min 4e-007
field max 5.7955103e-005
statistic Basic.rack[15].node[2].app 	hops
field count 201077
field mean 3.2481437459282
field stddev 0.8292127853503
field sum 653127
field sqrsum 2259709
field min 2
field max 4
statistic Basic.rack[15].node[3].app 	throughput
field count 200195
field mean 100098
field stddev 57791.462907596
field sum 20039119110
field sqrsum 2.6744943131907e+015
field min 1
field max 200195
statistic Basic.rack[15].node[3].app 	"End-to-End Delay"
field count 200195
field mean 3.4815431691741e-006
field stddev 5.3864090424772e-006
field sum 0.6969875347528
field sqrsum 8.2349012652544e-006
field min 4e-007
field max 6.7693022e-005
statistic Basic.rack[15].node[3].app 	hops
field count 200195
field mean 3.2506506156497
field stddev 0.82887971591215
field sum 650764
field sqrsum 2252948
field min 2
field max 4
statistic Basic.rack[15].node[4].app 	throughput
field count 200252
field mean 100126.5
field stddev 57807.917390268
field sum 20050531878
field sqrsum 2.6767794232661e+015
field min 1
field max 200252
statistic Basic.rack[15].node[4].app 	"End-to-End Delay"
field count 200252
field mean 3.4948966723469e-006
field stddev 5.4042821024023e-006
field sum 0.69986004843081
field sqrsum 8.2945223353642e-006
field min 4e-007
field max 6.5023701e-005
statistic Basic.rack[15].node[4].app 	hops
field count 200252
field mean 3.2502446916885
field stddev 0.82843067714207
field sum 650868
field sqrsum 2252912
field min 2
field max 4
statistic Basic.rack[15].node[5].app 	throughput
field count 199768
field mean 99884.5
field stddev 57668.198625123
field sum 19953726796
field sqrsum 2.6574173809645e+015
field min 1
field max 199768
statistic Basic.rack[15].node[5].app 	"End-to-End Delay"
field count 199768
field mean 3.4804845589775e-006
field stddev 5.3845953826106e-006
field sum 0.69528943937781
field sqrsum 8.2119620735486e-006
field min 4e-007
field max 6.4953756e-005
statistic Basic.rack[15].node[5].app 	hops
field count 199768
field mean 3.2528032517721
field stddev 0.82825349101281
field sum 649806
field sqrsum 2250732
field min 2
field max 4
statistic Basic.rack[15].node[6].app 	throughput
field count 200390
field mean 100195.5
field stddev 57847.754558842
field sum 20078176245
field sqrsum 2.6823171845491e+015
field min 1
field max 200390
statistic Basic.rack[15].node[6].app 	"End-to-End Delay"
field count 200390
field mean 3.519659549318e-006
field stddev 5.4411816224161e-006
field sum 0.70530457708782
field sqrsum 8.4152403914958e-006
field min 4e-007
field max 6.6128531e-005
statistic Basic.rack[15].node[6].app 	hops
field count 200390
field mean 3.2483956285244
field stddev 0.82821804658542
field sum 650946
field sqrsum 2251986
field min 2
field max 4
statistic Basic.rack[15].node[7].app 	throughput
field count 200274
field mean 100137.5
field stddev 57814.268243229
field sum 20054937675
field sqrsum 2.6776617435945e+015
field min 1
field max 200274
statistic Basic.rack[15].node[7].app 	"End-to-End Delay"
field count 200274
field mean 3.4779491401471e-006
field stddev 5.4136848154885e-006
field sum 0.69654278609382
field sqrsum 8.2921381196966e-006
field min 4e-007
field max 7.2794482e-005
statistic Basic.rack[15].node[7].app 	hops
field count 200274
field mean 3.2487741793743
field stddev 0.8301752072672
field sum 650645
field sqrsum 2251825
field min 2
field max 4
statistic Basic.rack[15].node[8].app 	throughput
field count 199409
field mean 99705
field stddev 57564.564251803
field sum 19882074345
field sqrsum 2.6431163360662e+015
field min 1
field max 199409
statistic Basic.rack[15].node[8].app 	"End-to-End Delay"
field count 199409
field mean 3.4985754430933e-006
field stddev 5.4235414381802e-006
field sum 0.6976474305318
field sqrsum 8.3063189521022e-006
field min 4e-007
field max 6.0532981e-005
statistic Basic.rack[15].node[8].app 	hops
field count 199409
field mean 3.2502093686845
field stddev 0.82877826594332
field sum 648121
field sqrsum 2243497
field min 2
field max 4
statistic Basic.rack[15].node[9].app 	throughput
field count 199426
field mean 99713.5
field stddev 57569.471729092
field sum 19885464451
field sqrsum 2.6437923842249e+015
field min 1
field max 199426
statistic Basic.rack[15].node[9].app 	"End-to-End Delay"
field count 199426
field mean 3.4903651155406e-006
field stddev 5.4055544127935e-006
field sum 0.6960695535318
field sqrsum 8.2567390789285e-006
field min 4e-007
field max 6.6661914e-005
statistic Basic.rack[15].node[9].app 	hops
field count 199426
field mean 3.2497016437175
field stddev 0.82875066562756
field sum 648075
field sqrsum 2243021
field min 2
field max 4
statistic Basic.rack[15].eps.queue[0] 	dropsum
field count 0
field mean nan
field stddev nan
field sum 0
field sqrsum 0
field min nan
field max nan
statistic Basic.rack[15].eps.queue[1] 	dropsum
field count 0
field mean nan
field stddev nan
field sum 0
field sqrsum 0
field min nan
field max nan
statistic Basic.rack[15].eps.queue[2] 	dropsum
field count 0
field mean nan
field stddev nan
field sum 0
field sqrsum 0
field min nan
field max nan
statistic Basic.rack[15].eps.queue[3] 	dropsum
field count 0
field mean nan
field stddev nan
field sum 0
field sqrsum 0
field min nan
field max nan
