version 2
run Basic-78-20180510-21:06:47-20380
attr configname Basic
attr datetime 20180510-21:06:47
attr experiment Basic
attr inifile omnetpp.ini
attr iterationvars "$0=exponential(0.05 ms), $1=7, $2=4"
attr iterationvarsf exponential(0.05_ms),7,4-
attr measurement "$0=exponential(0.05 ms), $1=7, $2=4"
attr network Networks.Basic
attr processid 20380
attr repetition 0
attr replication #0
attr resultdir results
attr runnumber 78
attr seedset 78
param **.frameCapacity 50
param **.packetLength "1024 bytes"
param **.pattern 7
param **.sendIaTime "exponential(0.05 ms)"
param **.tp 4

statistic Basic.rack[0].node[0].app 	throughput
field count 151375
field mean 75688
field stddev 43698.342836619
field sum 11457271000
field sqrsum 1.156233417507e+015
field min 1
field max 151375
statistic Basic.rack[0].node[0].app 	"End-to-End Delay"
field count 151375
field mean 0.00037051786601705
field stddev 0.0003064819565383
field sum 56.087141968331
field sqrsum 0.035000028060258
field min 4e-007
field max 0.000835396124
statistic Basic.rack[0].node[0].app 	hops
field count 151375
field mean 2.9141007431874
field stddev 0.75390147503621
field sum 441122
field sqrsum 1371510
field min 2
field max 4
statistic Basic.rack[0].node[1].app 	throughput
field count 151017
field mean 75509
field stddev 43594.997138433
field sum 11403142653
field sqrsum 1.1480493970663e+015
field min 1
field max 151017
statistic Basic.rack[0].node[1].app 	"End-to-End Delay"
field count 151017
field mean 0.000369583128183
field stddev 0.0003055305179451
field sum 55.813335268812
field sqrsum 0.034724844132099
field min 4e-007
field max 0.000835395926
statistic Basic.rack[0].node[1].app 	hops
field count 151017
field mean 2.9117582788693
field stddev 0.7517267069602
field sum 439725
field sqrsum 1365711
field min 2
field max 4
statistic Basic.rack[0].node[2].app 	throughput
field count 152142
field mean 76071.5
field stddev 43919.756664854
field sum 11573670153
field sqrsum 1.1738980741685e+015
field min 1
field max 152142
statistic Basic.rack[0].node[2].app 	"End-to-End Delay"
field count 152142
field mean 0.00037104319739404
field stddev 0.00030535968395336
field sum 56.451254137924
field sqrsum 0.035132170872679
field min 4e-007
field max 0.000835396669
statistic Basic.rack[0].node[2].app 	hops
field count 152142
field mean 2.9155262846551
field stddev 0.75121294271314
field sum 443574
field sqrsum 1379108
field min 2
field max 4
statistic Basic.rack[0].node[3].app 	throughput
field count 152021
field mean 76011
field stddev 43884.826973568
field sum 11555268231
field sqrsum 1.1710994729193e+015
field min 1
field max 152021
statistic Basic.rack[0].node[3].app 	"End-to-End Delay"
field count 152021
field mean 0.00037086690794559
field stddev 0.00030547959485605
field sum 56.379558212796
field sqrsum 0.035095481778135
field min 4e-007
field max 0.000835396284
statistic Basic.rack[0].node[3].app 	hops
field count 152021
field mean 2.9151301464929
field stddev 0.75151475832679
field sum 443161
field sqrsum 1377729
field min 2
field max 4
statistic Basic.rack[0].node[4].app 	throughput
field count 152165
field mean 76083
field stddev 43926.39619295
field sum 11577169695
field sqrsum 1.174430543483e+015
field min 1
field max 152165
statistic Basic.rack[0].node[4].app 	"End-to-End Delay"
field count 152165
field mean 0.00036997318386422
field stddev 0.00030489711905418
field sum 56.296969522698
field sqrsum 0.034973877353291
field min 4e-007
field max 0.000835395741
statistic Basic.rack[0].node[4].app 	hops
field count 152165
field mean 2.9127460322676
field stddev 0.75014140895206
field sum 443218
field sqrsum 1376606
field min 2
field max 4
statistic Basic.rack[0].node[5].app 	throughput
field count 152380
field mean 76190.5
field stddev 43988.461346888
field sum 11609908390
field sqrsum 1.1794157636149e+015
field min 1
field max 152380
statistic Basic.rack[0].node[5].app 	"End-to-End Delay"
field count 152380
field mean 0.00037034983035001
field stddev 0.00030563274573586
field sum 56.433907148734
field sqrsum 0.035134219890186
field min 4e-007
field max 0.000835396305
statistic Basic.rack[0].node[5].app 	hops
field count 152380
field mean 2.9138338364615
field stddev 0.75211215011203
field sum 444010
field sqrsum 1379968
field min 2
field max 4
statistic Basic.rack[0].node[6].app 	throughput
field count 151834
field mean 75917.5
field stddev 43830.844723398
field sum 11526857695
field sqrsum 1.166783116461e+015
field min 1
field max 151834
statistic Basic.rack[0].node[6].app 	"End-to-End Delay"
field count 151834
field mean 0.00037126040194423
field stddev 0.00030589322562183
field sum 56.3699518688
field sqrsum 0.035135045840413
field min 4e-007
field max 0.000835396115
statistic Basic.rack[0].node[6].app 	hops
field count 151834
field mean 2.915750095499
field stddev 0.7524645082348
field sum 442710
field sqrsum 1376800
field min 2
field max 4
statistic Basic.rack[0].node[7].app 	throughput
field count 152138
field mean 76069.5
field stddev 43918.601964316
field sum 11573061591
field sqrsum 1.1738054872416e+015
field min 1
field max 152138
statistic Basic.rack[0].node[7].app 	"End-to-End Delay"
field count 152138
field mean 0.00037046081941449
field stddev 0.0003058596683674
field sum 56.361168144081
field sqrsum 0.035112041686086
field min 4e-007
field max 0.000835396669
statistic Basic.rack[0].node[7].app 	hops
field count 152138
field mean 2.9139399755485
field stddev 0.75255104944702
field sum 443321
field sqrsum 1377971
field min 2
field max 4
statistic Basic.rack[0].node[8].app 	throughput
field count 151698
field mean 75849.5
field stddev 43791.584905093
field sum 11506217451
field sqrsum 1.1636506186603e+015
field min 1
field max 151698
statistic Basic.rack[0].node[8].app 	"End-to-End Delay"
field count 151698
field mean 0.00036968026990161
field stddev 0.00030585869479209
field sum 56.079757583535
field sqrsum 0.034922764667869
field min 4e-007
field max 0.000835395874
statistic Basic.rack[0].node[8].app 	hops
field count 151698
field mean 2.9120687154742
field stddev 0.75249435066636
field sum 441755
field sqrsum 1372319
field min 2
field max 4
statistic Basic.rack[0].node[9].app 	throughput
field count 152114
field mean 76057.5
field stddev 43911.673761085
field sum 11569410555
field sqrsum 1.1732500679124e+015
field min 1
field max 152114
statistic Basic.rack[0].node[9].app 	"End-to-End Delay"
field count 152114
field mean 0.00037056988931994
field stddev 0.00030592446170219
field sum 56.368868144013
field sqrsum 0.035124826866637
field min 4e-007
field max 0.000835396024
statistic Basic.rack[0].node[9].app 	hops
field count 152114
field mean 2.9142222280658
field stddev 0.75249054148674
field sum 443294
field sqrsum 1377990
field min 2
field max 4
statistic Basic.rack[0].eps.queue[0] 	dropsum
field count 0
field mean nan
field stddev nan
field sum 0
field sqrsum 0
field min nan
field max nan
statistic Basic.rack[0].eps.queue[1] 	dropsum
field count 593738
field mean 296869.5
field stddev 171397.54140026
field sum 176262703191
field sqrsum 6.9769301998782e+016
field min 1
field max 593738
statistic Basic.rack[0].eps.queue[2] 	dropsum
field count 0
field mean nan
field stddev nan
field sum 0
field sqrsum 0
field min nan
field max nan
statistic Basic.rack[0].eps.queue[3] 	dropsum
field count 0
field mean nan
field stddev nan
field sum 0
field sqrsum 0
field min nan
field max nan
statistic Basic.rack[1].node[0].app 	throughput
field count 151634
field mean 75817.5
field stddev 43773.109696479
field sum 11496510795
field sqrsum 1.1621784440963e+015
field min 1
field max 151634
statistic Basic.rack[1].node[0].app 	"End-to-End Delay"
field count 151634
field mean 0.00037430903760681
field stddev 0.00030804141888146
field sum 56.75797660847
field sqrsum 0.035633405542016
field min 4e-007
field max 0.000835857083
statistic Basic.rack[1].node[0].app 	hops
field count 151634
field mean 2.9234406531517
field stddev 0.7575707748298
field sum 443293
field sqrsum 1382965
field min 2
field max 4
statistic Basic.rack[1].node[1].app 	throughput
field count 150969
field mean 75485
field stddev 43581.140731973
field sum 11395894965
field sqrsum 1.146955043279e+015
field min 1
field max 150969
statistic Basic.rack[1].node[1].app 	"End-to-End Delay"
field count 150969
field mean 0.00037478033467961
field stddev 0.00030854194013399
field sum 56.580212346246
field sqrsum 0.035577022031316
field min 4e-007
field max 0.000835856872
statistic Basic.rack[1].node[1].app 	hops
field count 150969
field mean 2.9245143042611
field stddev 0.75886021544256
field sum 441511
field sqrsum 1378143
field min 2
field max 4
statistic Basic.rack[1].node[2].app 	throughput
field count 151751
field mean 75876
field stddev 43806.884687227
field sum 11514258876
field sqrsum 1.1648707038809e+015
field min 1
field max 151751
statistic Basic.rack[1].node[2].app 	"End-to-End Delay"
field count 151751
field mean 0.00037401022134954
field stddev 0.00030836070108793
field sum 56.756425100013
field sqrsum 0.035656832474437
field min 4e-007
field max 0.000835856
statistic Basic.rack[1].node[2].app 	hops
field count 151751
field mean 2.9225771164605
field stddev 0.75839663759123
field sum 443504
field sqrsum 1383456
field min 2
field max 4
statistic Basic.rack[1].node[3].app 	throughput
field count 150947
field mean 75474
field stddev 43574.789879011
field sum 11392573878
field sqrsum 1.1464536969663e+015
field min 1
field max 150947
statistic Basic.rack[1].node[3].app 	"End-to-End Delay"
field count 150947
field mean 0.0003756116015832
field stddev 0.00030876340455508
field sum 56.697444424179
field sqrsum 0.035686630663339
field min 4e-007
field max 0.0008358571
statistic Basic.rack[1].node[3].app 	hops
field count 150947
field mean 2.9264973798751
field stddev 0.75929830477673
field sum 441746
field sqrsum 1379794
field min 2
field max 4
statistic Basic.rack[1].node[4].app 	throughput
field count 152023
field mean 76012
field stddev 43885.404323837
field sum 11555572276
field sqrsum 1.1711456946003e+015
field min 1
field max 152023
statistic Basic.rack[1].node[4].app 	"End-to-End Delay"
field count 152023
field mean 0.00037258517847229
field stddev 0.00030800529183489
field sum 56.641516586893
field sqrsum 0.035525700135525
field min 4e-007
field max 0.000835857241
statistic Basic.rack[1].node[4].app 	hops
field count 152023
field mean 2.9189135854443
field stddev 0.75749250595584
field sum 443742
field sqrsum 1382474
field min 2
field max 4
statistic Basic.rack[1].node[5].app 	throughput
field count 151626
field mean 75813.5
field stddev 43770.800295402
field sum 11495297751
field sqrsum 1.161994509628e+015
field min 1
field max 151626
statistic Basic.rack[1].node[5].app 	"End-to-End Delay"
field count 151626
field mean 0.00037428091237513
field stddev 0.00030828402557334
field sum 56.750717619791
field sqrsum 0.035651004872923
field min 4e-007
field max 0.000835856688
statistic Basic.rack[1].node[5].app 	hops
field count 151626
field mean 2.9234629944732
field stddev 0.75832412984713
field sum 443273
field sqrsum 1383085
field min 2
field max 4
statistic Basic.rack[1].node[6].app 	throughput
field count 151890
field mean 75945.5
field stddev 43847.010530936
field sum 11535361995
field sqrsum 1.1680746007344e+015
field min 1
field max 151890
statistic Basic.rack[1].node[6].app 	"End-to-End Delay"
field count 151890
field mean 0.00037403902830694
field stddev 0.00030829273590434
field sum 56.812788009541
field sqrsum 0.035686400566605
field min 4e-007
field max 0.000835854964
statistic Basic.rack[1].node[6].app 	hops
field count 151890
field mean 2.9227006386201
field stddev 0.75837112177582
field sum 443929
field sqrsum 1384827
field min 2
field max 4
statistic Basic.rack[1].node[7].app 	throughput
field count 151354
field mean 75677.5
field stddev 43692.280658792
field sum 11454092335
field sqrsum 1.1557522788785e+015
field min 1
field max 151354
statistic Basic.rack[1].node[7].app 	"End-to-End Delay"
field count 151354
field mean 0.00037269593618161
field stddev 0.00030841659678017
field sum 56.409020724831
field sqrsum 0.035420230802119
field min 4e-007
field max 0.000835855902
statistic Basic.rack[1].node[7].app 	hops
field count 151354
field mean 2.9193942677432
field stddev 0.75860391841398
field sum 441862
field sqrsum 1377070
field min 2
field max 4
statistic Basic.rack[1].node[8].app 	throughput
field count 151519
field mean 75760
field stddev 43739.912056001
field sum 11479079440
field sqrsum 1.1595362514727e+015
field min 1
field max 151519
statistic Basic.rack[1].node[8].app 	"End-to-End Delay"
field count 151519
field mean 0.00037320463376694
field stddev 0.00030777060069135
field sum 56.547592903733
field sqrsum 0.03545602422087
field min 4e-007
field max 0.0008358557
statistic Basic.rack[1].node[8].app 	hops
field count 151519
field mean 2.9208020116289
field stddev 0.75690577265711
field sum 442557
field sqrsum 1379427
field min 2
field max 4
statistic Basic.rack[1].node[9].app 	throughput
field count 151546
field mean 75773.5
field stddev 43747.706284635
field sum 11483170831
field sqrsum 1.1601562322268e+015
field min 1
field max 151546
statistic Basic.rack[1].node[9].app 	"End-to-End Delay"
field count 151546
field mean 0.00037359979017098
field stddev 0.00030834566949139
field sum 56.617553801252
field sqrsum 0.035560758049432
field min 4e-007
field max 0.000835856875
statistic Basic.rack[1].node[9].app 	hops
field count 151546
field mean 2.9213902049543
field stddev 0.75829688393554
field sum 442725
field sqrsum 1380513
field min 2
field max 4
statistic Basic.rack[1].eps.queue[0] 	dropsum
field count 592293
field mean 296147
field stddev 170980.40583078
field sum 175405795071
field sqrsum 6.9261141521662e+016
field min 1
field max 592293
statistic Basic.rack[1].eps.queue[1] 	dropsum
field count 0
field mean nan
field stddev nan
field sum 0
field sqrsum 0
field min nan
field max nan
statistic Basic.rack[1].eps.queue[2] 	dropsum
field count 0
field mean nan
field stddev nan
field sum 0
field sqrsum 0
field min nan
field max nan
statistic Basic.rack[1].eps.queue[3] 	dropsum
field count 0
field mean nan
field stddev nan
field sum 0
field sqrsum 0
field min nan
field max nan
statistic Basic.rack[2].node[0].app 	throughput
field count 161076
field mean 80538.5
field stddev 46498.780317337
field sum 12972819426
field sqrsum 1.3930775655147e+015
field min 1
field max 161076
statistic Basic.rack[2].node[0].app 	"End-to-End Delay"
field count 161076
field mean 0.00027644996675783
field stddev 0.00035176216292091
field sum 44.529454845485
field sqrsum 0.032241042259534
field min 4e-007
field max 0.00114979427
statistic Basic.rack[2].node[0].app 	hops
field count 161076
field mean 3.3030246591671
field stddev 1.1433885459364
field sum 532038
field sqrsum 1967914
field min 2
field max 5
statistic Basic.rack[2].node[1].app 	throughput
field count 161990
field mean 80995.5
field stddev 46762.629390358
field sum 13120461045
field sqrsum 1.4169266966067e+015
field min 1
field max 161990
statistic Basic.rack[2].node[1].app 	"End-to-End Delay"
field count 161990
field mean 0.00027686426233317
field stddev 0.00035194339352105
field sum 44.849241855351
field sqrsum 0.032481782420193
field min 4e-007
field max 0.001142205765
statistic Basic.rack[2].node[1].app 	hops
field count 161990
field mean 3.3043150811779
field stddev 1.1438749303198
field sum 535266
field sqrsum 1980642
field min 2
field max 5
statistic Basic.rack[2].node[2].app 	throughput
field count 160493
field mean 80247
field stddev 46330.482713868
field sum 12879081771
field sqrsum 1.3780059401427e+015
field min 1
field max 160493
statistic Basic.rack[2].node[2].app 	"End-to-End Delay"
field count 160493
field mean 0.00027732503129092
field stddev 0.00035200523350182
field sum 44.508726246974
field sqrsum 0.03222957598592
field min 4e-007
field max 0.001145766181
statistic Basic.rack[2].node[2].app 	hops
field count 160493
field mean 3.3062875016356
field stddev 1.1434148026742
field sum 530636
field sqrsum 1964262
field min 2
field max 5
statistic Basic.rack[2].node[3].app 	throughput
field count 160724
field mean 80362.5
field stddev 46397.166669959
field sum 12916182450
field sqrsum 1.3839646441234e+015
field min 1
field max 160724
statistic Basic.rack[2].node[3].app 	"End-to-End Delay"
field count 160724
field mean 0.000276651129438
field stddev 0.00035182908131486
field sum 44.464476127793
field sqrsum 0.032196035550919
field min 4e-007
field max 0.001148548354
statistic Basic.rack[2].node[3].app 	hops
field count 160724
field mean 3.3056170827008
field stddev 1.1422531468819
field sum 531292
field sqrsum 1965950
field min 2
field max 5
statistic Basic.rack[2].node[4].app 	throughput
field count 161236
field mean 80618.5
field stddev 46544.968338873
field sum 12998604466
field sqrsum 1.3972329926548e+015
field min 1
field max 161236
statistic Basic.rack[2].node[4].app 	"End-to-End Delay"
field count 161236
field mean 0.00027741210847532
field stddev 0.00035227839532139
field sum 44.728818722127
field sqrsum 0.032417590344696
field min 4e-007
field max 0.001146382945
statistic Basic.rack[2].node[4].app 	hops
field count 161236
field mean 3.3058498102161
field stddev 1.1446646746849
field sum 533022
field sqrsum 1973350
field min 2
field max 5
statistic Basic.rack[2].node[5].app 	throughput
field count 160630
field mean 80315.5
field stddev 46370.031207307
field sum 12901078765
field sqrsum 1.3815378217076e+015
field min 1
field max 160630
statistic Basic.rack[2].node[5].app 	"End-to-End Delay"
field count 160630
field mean 0.0002773306431507
field stddev 0.00035207534528244
field sum 44.547621209296
field sqrsum 0.032265517225395
field min 4e-007
field max 0.001127630968
statistic Basic.rack[2].node[5].app 	hops
field count 160630
field mean 3.3066737222188
field stddev 1.1434148218459
field sum 531151
field sqrsum 1966349
field min 2
field max 5
statistic Basic.rack[2].node[6].app 	throughput
field count 160127
field mean 80064
field stddev 46224.827614606
field sum 12820408128
field sqrsum 1.3685999350109e+015
field min 1
field max 160127
statistic Basic.rack[2].node[6].app 	"End-to-End Delay"
field count 160127
field mean 0.0002782644513809
field stddev 0.00035273153148997
field sum 44.557651806269
field sqrsum 0.032321612725051
field min 4e-007
field max 0.001152939766
statistic Basic.rack[2].node[6].app 	hops
field count 160127
field mean 3.3087674158637
field stddev 1.1449038169928
field sum 529823
field sqrsum 1962955
field min 2
field max 5
statistic Basic.rack[2].node[7].app 	throughput
field count 161471
field mean 80736
field stddev 46612.806995503
field sum 13036522656
field sqrsum 1.4033512453655e+015
field min 1
field max 161471
statistic Basic.rack[2].node[7].app 	"End-to-End Delay"
field count 161471
field mean 0.00027616618017533
field stddev 0.0003515364853102
field sum 44.59282927909
field sqrsum 0.032269154919638
field min 4e-007
field max 0.001153952975
statistic Basic.rack[2].node[7].app 	hops
field count 161471
field mean 3.3026054214069
field stddev 1.1420236789272
field sum 533275
field sqrsum 1971789
field min 2
field max 5
statistic Basic.rack[2].node[8].app 	throughput
field count 161253
field mean 80627
field stddev 46549.875816161
field sum 13001345631
field sqrsum 1.3976749918056e+015
field min 1
field max 161253
statistic Basic.rack[2].node[8].app 	"End-to-End Delay"
field count 161253
field mean 0.00027710811920575
field stddev 0.00035164104665828
field sum 44.684515546285
field sqrsum 0.03232148175681
field min 4e-007
field max 0.001130830528
statistic Basic.rack[2].node[8].app 	hops
field count 161253
field mean 3.3080128741791
field stddev 1.1410834302837
field sum 533427
field sqrsum 1974545
field min 2
field max 5
statistic Basic.rack[2].node[9].app 	throughput
field count 161301
field mean 80651
field stddev 46563.732222621
field sum 13009086951
field sqrsum 1.3989234925512e+015
field min 1
field max 161301
statistic Basic.rack[2].node[9].app 	"End-to-End Delay"
field count 161301
field mean 0.0002769551422161
field stddev 0.00035162245027606
field sum 44.673141394599
field sqrsum 0.032315321686082
field min 4e-007
field max 0.00114315497
statistic Basic.rack[2].node[9].app 	hops
field count 161301
field mean 3.3046044351864
field stddev 1.1431861542628
field sum 533036
field sqrsum 1972272
field min 2
field max 5
statistic Basic.rack[2].eps.queue[0] 	dropsum
field count 277801
field mean 138901
field stddev 80194.385403011
field sum 38586836701
field sqrsum 7.1463207438619e+015
field min 1
field max 277801
statistic Basic.rack[2].eps.queue[1] 	dropsum
field count 0
field mean nan
field stddev nan
field sum 0
field sqrsum 0
field min nan
field max nan
statistic Basic.rack[2].eps.queue[2] 	dropsum
field count 0
field mean nan
field stddev nan
field sum 0
field sqrsum 0
field min nan
field max nan
statistic Basic.rack[2].eps.queue[3] 	dropsum
field count 0
field mean nan
field stddev nan
field sum 0
field sqrsum 0
field min nan
field max nan
statistic Basic.rack[3].node[0].app 	throughput
field count 160865
field mean 80433
field stddev 46437.869863938
field sum 12938854545
field sqrsum 1.3876102038725e+015
field min 1
field max 160865
statistic Basic.rack[3].node[0].app 	"End-to-End Delay"
field count 160865
field mean 0.00024270639266167
field stddev 0.00031133517920443
field sum 39.042963855519
field sqrsum 0.025068459094885
field min 4e-007
field max 0.001151497225
statistic Basic.rack[3].node[0].app 	hops
field count 160865
field mean 3.2214900693128
field stddev 1.0508100402973
field sum 518225
field sqrsum 1847083
field min 2
field max 5
statistic Basic.rack[3].node[1].app 	throughput
field count 161015
field mean 80508
field stddev 46481.171134127
field sum 12962995620
field sqrsum 1.3914954808347e+015
field min 1
field max 161015
statistic Basic.rack[3].node[1].app 	"End-to-End Delay"
field count 161015
field mean 0.00024309750771886
field stddev 0.00031195808561416
field sum 39.142345205352
field sqrsum 0.025184942411542
field min 4e-007
field max 0.001147817039
statistic Basic.rack[3].node[1].app 	hops
field count 161015
field mean 3.222954383132
field stddev 1.0514813035877
field sum 518944
field sqrsum 1850552
field min 2
field max 5
statistic Basic.rack[3].node[2].app 	throughput
field count 162055
field mean 81028
field stddev 46781.393274107
field sum 13130992540
field sqrsum 1.418633041044e+015
field min 1
field max 162055
statistic Basic.rack[3].node[2].app 	"End-to-End Delay"
field count 162055
field mean 0.00024307144361997
field stddev 0.0003110257368015
field sum 39.390942795835
field sqrsum 0.025251432579791
field min 4e-007
field max 0.001128267818
statistic Basic.rack[3].node[2].app 	hops
field count 162055
field mean 3.2243250748203
field stddev 1.0490521382907
field sum 522518
field sqrsum 1863110
field min 2
field max 5
statistic Basic.rack[3].node[3].app 	throughput
field count 161036
field mean 80518.5
field stddev 46487.233311954
field sum 12966377166
field sqrsum 1.3920399976617e+015
field min 1
field max 161036
statistic Basic.rack[3].node[3].app 	"End-to-End Delay"
field count 161036
field mean 0.00024354978633637
field stddev 0.00031194562270693
field sum 39.220283392464
field sqrsum 0.025222419008478
field min 4e-007
field max 0.001143543538
statistic Basic.rack[3].node[3].app 	hops
field count 161036
field mean 3.2247882461065
field stddev 1.0514680503384
field sum 519307
field sqrsum 1852693
field min 2
field max 5
statistic Basic.rack[3].node[4].app 	throughput
field count 161137
field mean 80569
field stddev 46516.389500548
field sum 12982646953
field sqrsum 1.394660848926e+015
field min 1
field max 161137
statistic Basic.rack[3].node[4].app 	"End-to-End Delay"
field count 161137
field mean 0.00024324479601778
field stddev 0.00031141994214498
field sum 39.195736695916
field sqrsum 0.025161511819954
field min 4e-007
field max 0.001155539413
statistic Basic.rack[3].node[4].app 	hops
field count 161137
field mean 3.2248521444485
field stddev 1.0498247920592
field sum 519643
field sqrsum 1853365
field min 2
field max 5
statistic Basic.rack[3].node[5].app 	throughput
field count 161117
field mean 80559
field stddev 46510.615997856
field sum 12979424403
field sqrsum 1.3941416075002e+015
field min 1
field max 161117
statistic Basic.rack[3].node[5].app 	"End-to-End Delay"
field count 161117
field mean 0.00024304671892401
field stddev 0.00031185336464423
field sum 39.15895821288
field sqrsum 0.025186393489991
field min 4e-007
field max 0.001139331764
statistic Basic.rack[3].node[5].app 	hops
field count 161117
field mean 3.2222173948125
field stddev 1.0521216165727
field sum 519154
field sqrsum 1851176
field min 2
field max 5
statistic Basic.rack[3].node[6].app 	throughput
field count 160761
field mean 80381
field stddev 46407.84764994
field sum 12922129941
field sqrsum 1.3849206616734e+015
field min 1
field max 160761
statistic Basic.rack[3].node[6].app 	"End-to-End Delay"
field count 160761
field mean 0.00024279260395631
field stddev 0.00031156309462562
field sum 39.03158180462
field sqrsum 0.025081803679177
field min 4e-007
field max 0.00112670617
statistic Basic.rack[3].node[6].app 	hops
field count 160761
field mean 3.2237607379899
field stddev 1.0499792019559
field sum 518255
field sqrsum 1847961
field min 2
field max 5
statistic Basic.rack[3].node[7].app 	throughput
field count 160326
field mean 80163.5
field stddev 46282.27396639
field sum 12852293301
field sqrsum 1.3737088012819e+015
field min 1
field max 160326
statistic Basic.rack[3].node[7].app 	"End-to-End Delay"
field count 160326
field mean 0.00024329103760399
field stddev 0.00031201127882266
field sum 39.005878894898
field sqrsum 0.025097585934391
field min 4e-007
field max 0.001178050943
statistic Basic.rack[3].node[7].app 	hops
field count 160326
field mean 3.2238064942679
field stddev 1.052127633926
field sum 516860
field sqrsum 1843732
field min 2
field max 5
statistic Basic.rack[3].node[8].app 	throughput
field count 161416
field mean 80708.5
field stddev 46596.9298631
field sum 13027643236
field sqrsum 1.4019177162692e+015
field min 1
field max 161416
statistic Basic.rack[3].node[8].app 	"End-to-End Delay"
field count 161416
field mean 0.00024314431735753
field stddev 0.00031163199305033
field sum 39.247383130583
field sqrsum 0.025218515050374
field min 4e-007
field max 0.00117733305
statistic Basic.rack[3].node[8].app 	hops
field count 161416
field mean 3.2236643207613
field stddev 1.0506724357079
field sum 520351
field sqrsum 1855625
field min 2
field max 5
statistic Basic.rack[3].node[9].app 	throughput
field count 160769
field mean 80385
field stddev 46410.157051016
field sum 12923416065
field sqrsum 1.3851274260413e+015
field min 1
field max 160769
statistic Basic.rack[3].node[9].app 	"End-to-End Delay"
field count 160769
field mean 0.00024096235292179
field stddev 0.00031087226069037
field sum 38.739276516883
field sqrsum 0.024871577934649
field min 4e-007
field max 0.001154822254
statistic Basic.rack[3].node[9].app 	hops
field count 160769
field mean 3.2160491139461
field stddev 1.0491140854206
field sum 517041
field sqrsum 1839777
field min 2
field max 5
statistic Basic.rack[3].eps.queue[0] 	dropsum
field count 0
field mean nan
field stddev nan
field sum 0
field sqrsum 0
field min nan
field max nan
statistic Basic.rack[3].eps.queue[1] 	dropsum
field count 279960
field mean 139980.5
field stddev 80817.635018602
field sum 39188940780
field sqrsum 7.3142369701595e+015
field min 1
field max 279960
statistic Basic.rack[3].eps.queue[2] 	dropsum
field count 0
field mean nan
field stddev nan
field sum 0
field sqrsum 0
field min nan
field max nan
statistic Basic.rack[3].eps.queue[3] 	dropsum
field count 0
field mean nan
field stddev nan
field sum 0
field sqrsum 0
field min nan
field max nan
statistic Basic.rack[4].node[0].app 	throughput
field count 151319
field mean 75660
field stddev 43682.177029081
field sum 11448795540
field sqrsum 1.15495067781e+015
field min 1
field max 151319
statistic Basic.rack[4].node[0].app 	"End-to-End Delay"
field count 151319
field mean 0.00033660529294002
field stddev 0.00027537972203077
field sum 50.934776322391
field sqrsum 0.028619963201235
field min 4e-007
field max 0.000829717355
statistic Basic.rack[4].node[0].app 	hops
field count 151319
field mean 2.8317131358256
field stddev 0.68145685906829
field sum 428492
field sqrsum 1283636
field min 2
field max 4
statistic Basic.rack[4].node[1].app 	throughput
field count 151887
field mean 75944
field stddev 43846.144505532
field sum 11534906328
field sqrsum 1.1680053899294e+015
field min 1
field max 151887
statistic Basic.rack[4].node[1].app 	"End-to-End Delay"
field count 151887
field mean 0.00033798538115542
field stddev 0.00027620416431697
field sum 51.335585587554
field sqrsum 0.02893786908392
field min 4e-007
field max 0.000829716731
statistic Basic.rack[4].node[1].app 	hops
field count 151887
field mean 2.8351405979445
field stddev 0.68361074772285
field sum 430621
field sqrsum 1291851
field min 2
field max 4
statistic Basic.rack[4].node[2].app 	throughput
field count 151839
field mean 75920
field stddev 43832.288099071
field sum 11527616880
field sqrsum 1.1668983888338e+015
field min 1
field max 151839
statistic Basic.rack[4].node[2].app 	"End-to-End Delay"
field count 151839
field mean 0.0003383839454628
field stddev 0.0002754568301532
field sum 51.379879895125
field sqrsum 0.028907057211206
field min 4e-007
field max 0.000829715547
statistic Basic.rack[4].node[2].app 	hops
field count 151839
field mean 2.8361817451379
field stddev 0.68156379040286
field sum 430643
field sqrsum 1291915
field min 2
field max 4
statistic Basic.rack[4].node[3].app 	throughput
field count 151735
field mean 75868
field stddev 43802.265885073
field sum 11511830980
field sqrsum 1.1645022864439e+015
field min 1
field max 151735
statistic Basic.rack[4].node[3].app 	"End-to-End Delay"
field count 151735
field mean 0.00033773679356834
field stddev 0.0002764632738018
field sum 51.246492372092
field sqrsum 0.02890515026657
field min 4e-007
field max 0.000829717326
statistic Basic.rack[4].node[3].app 	hops
field count 151735
field mean 2.8345536626355
field stddev 0.68408176352909
field sum 430101
field sqrsum 1290151
field min 2
field max 4
statistic Basic.rack[4].node[4].app 	throughput
field count 151137
field mean 75569
field stddev 43629.638154585
field sum 11421271953
field sqrsum 1.150788326531e+015
field min 1
field max 151137
statistic Basic.rack[4].node[4].app 	"End-to-End Delay"
field count 151137
field mean 0.00033793054920657
field stddev 0.00027544207131437
field sum 51.073809415433
field sqrsum 0.028725837091484
field min 4e-007
field max 0.000829717276
statistic Basic.rack[4].node[4].app 	hops
field count 151137
field mean 2.835156182801
field stddev 0.68168025546488
field sum 428497
field sqrsum 1285087
field min 2
field max 4
statistic Basic.rack[4].node[5].app 	throughput
field count 151805
field mean 75903
field stddev 43822.473144495
field sum 11522454915
field sqrsum 1.1661146863994e+015
field min 1
field max 151805
statistic Basic.rack[4].node[5].app 	"End-to-End Delay"
field count 151805
field mean 0.00033669285654674
field stddev 0.00027633518182726
field sum 51.111659088079
field sqrsum 0.028800855891953
field min 4e-007
field max 0.000829717401
statistic Basic.rack[4].node[5].app 	hops
field count 151805
field mean 2.8320938045519
field stddev 0.6839076673066
field sum 429926
field sqrsum 1288594
field min 2
field max 4
statistic Basic.rack[4].node[6].app 	throughput
field count 151734
field mean 75867.5
field stddev 43801.977209939
field sum 11511679245
field sqrsum 1.1644792629336e+015
field min 1
field max 151734
statistic Basic.rack[4].node[6].app 	"End-to-End Delay"
field count 151734
field mean 0.00033654750576086
field stddev 0.00027587167395463
field sum 51.065699239118
field sqrsum 0.028733701060229
field min 4e-007
field max 0.000829717093
statistic Basic.rack[4].node[6].app 	hops
field count 151734
field mean 2.8316395797909
field stddev 0.68269737322541
field sum 429656
field sqrsum 1287350
field min 2
field max 4
statistic Basic.rack[4].node[7].app 	throughput
field count 151519
field mean 75760
field stddev 43739.912056001
field sum 11479079440
field sqrsum 1.1595362514727e+015
field min 1
field max 151519
statistic Basic.rack[4].node[7].app 	"End-to-End Delay"
field count 151519
field mean 0.00033757407372493
field stddev 0.00027566684655322
field sum 51.148886076728
field sqrsum 0.028780725557922
field min 4e-007
field max 0.000829716523
statistic Basic.rack[4].node[7].app 	hops
field count 151519
field mean 2.8342782093335
field stddev 0.68227123582345
field sum 429447
field sqrsum 1287703
field min 2
field max 4
statistic Basic.rack[4].node[8].app 	throughput
field count 152159
field mean 76080
field stddev 43924.664142142
field sum 11576256720
field sqrsum 1.1742916229246e+015
field min 1
field max 152159
statistic Basic.rack[4].node[8].app 	"End-to-End Delay"
field count 152159
field mean 0.00033831980153062
field stddev 0.00027603203189235
field sum 51.478402681098
field sqrsum 0.029009641339892
field min 4e-007
field max 0.000829716625
statistic Basic.rack[4].node[8].app 	hops
field count 152159
field mean 2.8359807832596
field stddev 0.68307475803613
field sum 431520
field sqrsum 1294778
field min 2
field max 4
statistic Basic.rack[4].node[9].app 	throughput
field count 151379
field mean 75690
field stddev 43699.497537157
field sum 11457876510
field sqrsum 1.156325078097e+015
field min 1
field max 151379
statistic Basic.rack[4].node[9].app 	"End-to-End Delay"
field count 151379
field mean 0.00033850179735694
field stddev 0.00027624957504678
field sum 51.242063582096
field sqrsum 0.028897765234436
field min 4e-007
field max 0.00082971625
statistic Basic.rack[4].node[9].app 	hops
field count 151379
field mean 2.8364039926278
field stddev 0.6835383881062
field sum 429372
field sqrsum 1288600
field min 2
field max 4
statistic Basic.rack[4].eps.queue[0] 	dropsum
field count 0
field mean nan
field stddev nan
field sum 0
field sqrsum 0
field min nan
field max nan
statistic Basic.rack[4].eps.queue[1] 	dropsum
field count 592970
field mean 296485.5
field stddev 171175.8388969
field sum 175807006935
field sqrsum 6.9498912536904e+016
field min 1
field max 592970
statistic Basic.rack[4].eps.queue[2] 	dropsum
field count 0
field mean nan
field stddev nan
field sum 0
field sqrsum 0
field min nan
field max nan
statistic Basic.rack[4].eps.queue[3] 	dropsum
field count 0
field mean nan
field stddev nan
field sum 0
field sqrsum 0
field min nan
field max nan
statistic Basic.rack[5].node[0].app 	throughput
field count 151800
field mean 75900.5
field stddev 43821.029768822
field sum 11521695900
field sqrsum 1.1659994656453e+015
field min 1
field max 151800
statistic Basic.rack[5].node[0].app 	"End-to-End Delay"
field count 151800
field mean 0.00038065830152877
field stddev 0.00031439427916222
field sum 57.783930172067
field sqrsum 0.037000317059669
field min 4e-007
field max 0.000836782067
statistic Basic.rack[5].node[0].app 	hops
field count 151800
field mean 2.9382542819499
field stddev 0.77191672037165
field sum 446027
field sqrsum 1400991
field min 2
field max 4
statistic Basic.rack[5].node[1].app 	throughput
field count 151516
field mean 75758.5
field stddev 43739.046030597
field sum 11478624886
field sqrsum 1.1594673783597e+015
field min 1
field max 151516
statistic Basic.rack[5].node[1].app 	"End-to-End Delay"
field count 151516
field mean 0.00038053410545621
field stddev 0.00031384680327255
field sum 57.657005522303
field sqrsum 0.036864656629499
field min 4e-007
field max 0.000836782453
statistic Basic.rack[5].node[1].app 	hops
field count 151516
field mean 2.9382903455741
field stddev 0.7708642496945
field sum 445198
field sqrsum 1398156
field min 2
field max 4
statistic Basic.rack[5].node[2].app 	throughput
field count 152348
field mean 76174.5
field stddev 43979.223742581
field sum 11605032726
field sqrsum 1.1786728855047e+015
field min 1
field max 152348
statistic Basic.rack[5].node[2].app 	"End-to-End Delay"
field count 152348
field mean 0.00038097883370148
field stddev 0.00031441916720166
field sum 58.041363356753
field sqrsum 0.037173465865283
field min 4e-007
field max 0.000836783921
statistic Basic.rack[5].node[2].app 	hops
field count 152348
field mean 2.9392246698349
field stddev 0.77204211521594
field sum 447785
field sqrsum 1406947
field min 2
field max 4
statistic Basic.rack[5].node[3].app 	throughput
field count 151600
field mean 75800.5
field stddev 43763.294741903
field sum 11491355800
field sqrsum 1.1613968566386e+015
field min 1
field max 151600
statistic Basic.rack[5].node[3].app 	"End-to-End Delay"
field count 151600
field mean 0.00038033039019634
field stddev 0.00031387747722048
field sum 57.658087153765
field sqrsum 0.036864515385169
field min 4e-007
field max 0.000836783564
statistic Basic.rack[5].node[3].app 	hops
field count 151600
field mean 2.9375791556728
field stddev 0.77082737358924
field sum 445337
field sqrsum 1398289
field min 2
field max 4
statistic Basic.rack[5].node[4].app 	throughput
field count 151962
field mean 75981.5
field stddev 43867.795140627
field sum 11546300703
field sqrsum 1.1697364803864e+015
field min 1
field max 151962
statistic Basic.rack[5].node[4].app 	"End-to-End Delay"
field count 151962
field mean 0.0003805063394104
field stddev 0.00031380565265255
field sum 57.822504349483
field sqrsum 0.036966035100823
field min 4e-007
field max 0.000836783809
statistic Basic.rack[5].node[4].app 	hops
field count 151962
field mean 2.9381095273818
field stddev 0.77077408851577
field sum 446481
field sqrsum 1402089
field min 2
field max 4
statistic Basic.rack[5].node[5].app 	throughput
field count 151125
field mean 75563
field stddev 43626.17405297
field sum 11419458375
field sqrsum 1.1505142377674e+015
field min 1
field max 151125
statistic Basic.rack[5].node[5].app 	"End-to-End Delay"
field count 151125
field mean 0.00038063549136389
field stddev 0.00031362398565061
field sum 57.523538632367
field sqrsum 0.036760057693544
field min 4e-007
field max 0.000836783711
statistic Basic.rack[5].node[5].app 	hops
field count 151125
field mean 2.9385674110835
field stddev 0.77036187902907
field sum 444091
field sqrsum 1394677
field min 2
field max 4
statistic Basic.rack[5].node[6].app 	throughput
field count 151764
field mean 75882.5
field stddev 43810.637463977
field sum 11516231730
field sqrsum 1.1651701002584e+015
field min 1
field max 151764
statistic Basic.rack[5].node[6].app 	"End-to-End Delay"
field count 151764
field mean 0.00038102586339107
field stddev 0.00031383059322916
field sum 57.826009131682
field sqrsum 0.036980288480362
field min 4e-007
field max 0.000836783803
statistic Basic.rack[5].node[6].app 	hops
field count 151764
field mean 2.939353206294
field stddev 0.77070790554111
field sum 446088
field sqrsum 1401356
field min 2
field max 4
statistic Basic.rack[5].node[7].app 	throughput
field count 151693
field mean 75847
field stddev 43790.14152942
field sum 11505458971
field sqrsum 1.1635355602783e+015
field min 1
field max 151693
statistic Basic.rack[5].node[7].app 	"End-to-End Delay"
field count 151693
field mean 0.00038212824631882
field stddev 0.00031425770448077
field sum 57.96618006884
field sqrsum 0.0371312988343
field min 4e-007
field max 0.000836783788
statistic Basic.rack[5].node[7].app 	hops
field count 151693
field mean 2.9420803860429
field stddev 0.77181686821548
field sum 446293
field sqrsum 1403393
field min 2
field max 4
statistic Basic.rack[5].node[8].app 	throughput
field count 151370
field mean 75685.5
field stddev 43696.899460946
field sum 11456514135
field sqrsum 1.1561188485813e+015
field min 1
field max 151370
statistic Basic.rack[5].node[8].app 	"End-to-End Delay"
field count 151370
field mean 0.00038203853371911
field stddev 0.00031376533398153
field sum 57.829172849062
field sqrsum 0.036995051372229
field min 4e-007
field max 0.000836782352
statistic Basic.rack[5].node[8].app 	hops
field count 151370
field mean 2.9417850300588
field stddev 0.77053317096108
field sum 445298
field sqrsum 1399842
field min 2
field max 4
statistic Basic.rack[5].node[9].app 	throughput
field count 151890
field mean 75945.5
field stddev 43847.010530936
field sum 11535361995
field sqrsum 1.1680746007344e+015
field min 1
field max 151890
statistic Basic.rack[5].node[9].app 	"End-to-End Delay"
field count 151890
field mean 0.00038078326731543
field stddev 0.00031375810786883
field sum 57.837170472541
field sqrsum 0.036976010282657
field min 4e-007
field max 0.000836782568
statistic Basic.rack[5].node[9].app 	hops
field count 151890
field mean 2.9387714793601
field stddev 0.77053671672302
field sum 446370
field sqrsum 1401960
field min 2
field max 4
statistic Basic.rack[5].eps.queue[0] 	dropsum
field count 592142
field mean 296071.5
field stddev 170936.81588545
field sum 175316370153
field sqrsum 6.9208182475287e+016
field min 1
field max 592142
statistic Basic.rack[5].eps.queue[1] 	dropsum
field count 0
field mean nan
field stddev nan
field sum 0
field sqrsum 0
field min nan
field max nan
statistic Basic.rack[5].eps.queue[2] 	dropsum
field count 0
field mean nan
field stddev nan
field sum 0
field sqrsum 0
field min nan
field max nan
statistic Basic.rack[5].eps.queue[3] 	dropsum
field count 0
field mean nan
field stddev nan
field sum 0
field sqrsum 0
field min nan
field max nan
statistic Basic.rack[6].node[0].app 	throughput
field count 160656
field mean 80328.5
field stddev 46377.536760807
field sum 12905255496
field sqrsum 1.3822087863954e+015
field min 1
field max 160656
statistic Basic.rack[6].node[0].app 	"End-to-End Delay"
field count 160656
field mean 0.00028404554220934
field stddev 0.00035916508409801
field sum 45.633620629184
field sqrsum 0.033686450446464
field min 4e-007
field max 0.001128985894
statistic Basic.rack[6].node[0].app 	hops
field count 160656
field mean 3.323386614879
field stddev 1.1597139690717
field sum 533922
field sqrsum 1990500
field min 2
field max 5
statistic Basic.rack[6].node[1].app 	throughput
field count 160596
field mean 80298.5
field stddev 46360.216252731
field sum 12895617906
field sqrsum 1.3806607340273e+015
field min 1
field max 160596
statistic Basic.rack[6].node[1].app 	"End-to-End Delay"
field count 160596
field mean 0.00028220488551751
field stddev 0.00035894766550039
field sum 45.320975794571
field sqrsum 0.033481410875366
field min 4e-007
field max 0.001124395503
statistic Basic.rack[6].node[1].app 	hops
field count 160596
field mean 3.3166143615034
field stddev 1.1594777872518
field sum 532635
field sqrsum 1982447
field min 2
field max 5
statistic Basic.rack[6].node[2].app 	throughput
field count 161554
field mean 80777.5
field stddev 46636.767031674
field sum 13049928235
field sqrsum 1.4055164206942e+015
field min 1
field max 161554
statistic Basic.rack[6].node[2].app 	"End-to-End Delay"
field count 161554
field mean 0.00028436684255469
field stddev 0.00035924441121131
field sum 45.94060088208
field sqrsum 0.033913455953222
field min 4e-007
field max 0.001115569532
statistic Basic.rack[6].node[2].app 	hops
field count 161554
field mean 3.3237060054223
field stddev 1.1607621607259
field sum 536958
field sqrsum 2002362
field min 2
field max 5
statistic Basic.rack[6].node[3].app 	throughput
field count 161228
field mean 80614.5
field stddev 46542.658937796
field sum 12997314606
field sqrsum 1.3970250253023e+015
field min 1
field max 161228
statistic Basic.rack[6].node[3].app 	"End-to-End Delay"
field count 161228
field mean 0.00028395924933597
field stddev 0.00035918844185902
field sum 45.78218185194
field sqrsum 0.033801190919268
field min 4e-007
field max 0.001134556255
statistic Basic.rack[6].node[3].app 	hops
field count 161228
field mean 3.3219912174064
field stddev 1.1603664652282
field sum 535598
field sqrsum 1996336
field min 2
field max 5
statistic Basic.rack[6].node[4].app 	throughput
field count 160894
field mean 80447.5
field stddev 46446.241442841
field sum 12943520065
field sqrsum 1.3883607927321e+015
field min 1
field max 160894
statistic Basic.rack[6].node[4].app 	"End-to-End Delay"
field count 160894
field mean 0.00028285570749613
field stddev 0.00035862133320152
field sum 45.509786201882
field sqrsum 0.033565032544228
field min 4e-007
field max 0.001125164159
statistic Basic.rack[6].node[4].app 	hops
field count 160894
field mean 3.3188558926995
field stddev 1.159079217193
field sum 533984
field sqrsum 1988370
field min 2
field max 5
statistic Basic.rack[6].node[5].app 	throughput
field count 161166
field mean 80583.5
field stddev 46524.761079451
field sum 12987320361
field sqrsum 1.3954139779741e+015
field min 1
field max 161166
statistic Basic.rack[6].node[5].app 	"End-to-End Delay"
field count 161166
field mean 0.00028274352599311
field stddev 0.00035876440030598
field sum 45.568643110206
field sqrsum 0.033628091373597
field min 4e-007
field max 0.001131534729
statistic Basic.rack[6].node[5].app 	hops
field count 161166
field mean 3.3194346202053
field stddev 1.1585260681537
field sum 534980
field sqrsum 1992144
field min 2
field max 5
statistic Basic.rack[6].node[6].app 	throughput
field count 161308
field mean 80654.5
field stddev 46565.752948564
field sum 13010216086
field sqrsum 1.3991056276724e+015
field min 1
field max 161308
statistic Basic.rack[6].node[6].app 	"End-to-End Delay"
field count 161308
field mean 0.00028279493536824
field stddev 0.00035858452880393
field sum 45.61708543438
field sqrsum 0.033641596818346
field min 4e-007
field max 0.00111225016
statistic Basic.rack[6].node[6].app 	hops
field count 161308
field mean 3.3204242814987
field stddev 1.1577653594371
field sum 535611
field sqrsum 1994675
field min 2
field max 5
statistic Basic.rack[6].node[7].app 	throughput
field count 161233
field mean 80617
field stddev 46544.102313469
field sum 12998120761
field sqrsum 1.3971550024791e+015
field min 1
field max 161233
statistic Basic.rack[6].node[7].app 	"End-to-End Delay"
field count 161233
field mean 0.00028470161919332
field stddev 0.00035959458756093
field sum 45.903296167397
field sqrsum 0.033917373315107
field min 4e-007
field max 0.001121863946
statistic Basic.rack[6].node[7].app 	hops
field count 161233
field mean 3.3246047645333
field stddev 1.1605622928167
field sum 536036
field sqrsum 1999272
field min 2
field max 5
statistic Basic.rack[6].node[8].app 	throughput
field count 160884
field mean 80442.5
field stddev 46443.354691495
field sum 12941911170
field sqrsum 1.3881019384199e+015
field min 1
field max 160884
statistic Basic.rack[6].node[8].app 	"End-to-End Delay"
field count 160884
field mean 0.0002829916700933
field stddev 0.00035878940708084
field sum 45.52883185129
field sqrsum 0.033594722791853
field min 4e-007
field max 0.001120189591
statistic Basic.rack[6].node[8].app 	hops
field count 160884
field mean 3.3194972775416
field stddev 1.1590861365385
field sum 534054
field sqrsum 1988934
field min 2
field max 5
statistic Basic.rack[6].node[9].app 	throughput
field count 160746
field mean 80373.5
field stddev 46403.517522921
field sum 12919718631
field sqrsum 1.3845330339454e+015
field min 1
field max 160746
statistic Basic.rack[6].node[9].app 	"End-to-End Delay"
field count 160746
field mean 0.00028306807703204
field stddev 0.00035933699483553
field sum 45.502061110592
field sqrsum 0.033636069768273
field min 4e-007
field max 0.001121894965
statistic Basic.rack[6].node[9].app 	hops
field count 160746
field mean 3.319752902094
field stddev 1.1599719744032
field sum 533637
field sqrsum 1987831
field min 2
field max 5
statistic Basic.rack[6].eps.queue[0] 	dropsum
field count 279017
field mean 139509
field stddev 80545.414366679
field sum 38925382653
field sqrsum 7.2405753029223e+015
field min 1
field max 279017
statistic Basic.rack[6].eps.queue[1] 	dropsum
field count 0
field mean nan
field stddev nan
field sum 0
field sqrsum 0
field min nan
field max nan
statistic Basic.rack[6].eps.queue[2] 	dropsum
field count 0
field mean nan
field stddev nan
field sum 0
field sqrsum 0
field min nan
field max nan
statistic Basic.rack[6].eps.queue[3] 	dropsum
field count 0
field mean nan
field stddev nan
field sum 0
field sqrsum 0
field min nan
field max nan
statistic Basic.rack[7].node[0].app 	throughput
field count 161275
field mean 80638
field stddev 46556.226669122
field sum 13004893450
field sqrsum 1.3982471290636e+015
field min 1
field max 161275
statistic Basic.rack[7].node[0].app 	"End-to-End Delay"
field count 161275
field mean 0.00027001271013362
field stddev 0.000343721631091
field sum 43.5462998268
field sqrsum 0.030811700150335
field min 4e-007
field max 0.001188448478
statistic Basic.rack[7].node[0].app 	hops
field count 161275
field mean 3.2885878158425
field stddev 1.1236326599566
field sum 530367
field sqrsum 1947775
field min 2
field max 5
statistic Basic.rack[7].node[1].app 	throughput
field count 160438
field mean 80219.5
field stddev 46314.605581465
field sum 12870256141
field sqrsum 1.3765897265852e+015
field min 1
field max 160438
statistic Basic.rack[7].node[1].app 	"End-to-End Delay"
field count 160438
field mean 0.00026977760178005
field stddev 0.00034374703616952
field sum 43.282578874387
field sqrsum 0.030634231112511
field min 4e-007
field max 0.001176312255
statistic Basic.rack[7].node[1].app 	hops
field count 160438
field mean 3.2878245802117
field stddev 1.1233415217187
field sum 527492
field sqrsum 1936756
field min 2
field max 5
statistic Basic.rack[7].node[2].app 	throughput
field count 161353
field mean 80677
field stddev 46578.743329621
field sum 13017475981
field sqrsum 1.4002768738002e+015
field min 1
field max 161353
statistic Basic.rack[7].node[2].app 	"End-to-End Delay"
field count 161353
field mean 0.00026945038608811
field stddev 0.00034371336145044
field sum 43.476628146475
field sqrsum 0.030776737972989
field min 4e-007
field max 0.001209194959
statistic Basic.rack[7].node[2].app 	hops
field count 161353
field mean 3.2879091185165
field stddev 1.1222505582555
field sum 530514
field sqrsum 1947496
field min 2
field max 5
statistic Basic.rack[7].node[3].app 	throughput
field count 160959
field mean 80480
field stddev 46465.00532659
field sum 12953980320
field sqrsum 1.3900441302114e+015
field min 1
field max 160959
statistic Basic.rack[7].node[3].app 	"End-to-End Delay"
field count 160959
field mean 0.00026985674139842
field stddev 0.00034343035862928
field sum 43.435871238749
field sqrsum 0.030705559214765
field min 4e-007
field max 0.001170540746
statistic Basic.rack[7].node[3].app 	hops
field count 160959
field mean 3.2893531893215
field stddev 1.1219396801903
field sum 529451
field sqrsum 1944157
field min 2
field max 5
statistic Basic.rack[7].node[4].app 	throughput
field count 160870
field mean 80435.5
field stddev 46439.313239611
field sum 12939658885
field sqrsum 1.3877395964396e+015
field min 1
field max 160870
statistic Basic.rack[7].node[4].app 	"End-to-End Delay"
field count 160870
field mean 0.00026956038170106
field stddev 0.00034333789033123
field sum 43.36417860425
field sqrsum 0.030652648154779
field min 4e-007
field max 0.001210447576
statistic Basic.rack[7].node[4].app 	hops
field count 160870
field mean 3.2877603033505
field stddev 1.1227299484751
field sum 528902
field sqrsum 1941682
field min 2
field max 5
statistic Basic.rack[7].node[5].app 	throughput
field count 160915
field mean 80458
field stddev 46452.303620667
field sum 12946899070
field sqrsum 1.3889044915324e+015
field min 1
field max 160915
statistic Basic.rack[7].node[5].app 	"End-to-End Delay"
field count 160915
field mean 0.00026871054736552
field stddev 0.00034327403365659
field sum 43.239557729323
field sqrsum 0.030580558249383
field min 4e-007
field max 0.001175344562
statistic Basic.rack[7].node[5].app 	hops
field count 160915
field mean 3.2835845011341
field stddev 1.1227921202823
field sum 528378
field sqrsum 1937832
field min 2
field max 5
statistic Basic.rack[7].node[6].app 	throughput
field count 160631
field mean 80316
field stddev 46370.319882442
field sum 12901239396
field sqrsum 1.3815636240257e+015
field min 1
field max 160631
statistic Basic.rack[7].node[6].app 	"End-to-End Delay"
field count 160631
field mean 0.00026913379750598
field stddev 0.00034383207813493
field sum 43.231231027182
field sqrsum 0.030624743963649
field min 4e-007
field max 0.001181828742
statistic Basic.rack[7].node[6].app 	hops
field count 160631
field mean 3.2855613175539
field stddev 1.1235657257188
field sum 527763
field sqrsum 1936777
field min 2
field max 5
statistic Basic.rack[7].node[7].app 	throughput
field count 162007
field mean 81004
field stddev 46767.536867646
field sum 13123215028
field sqrsum 1.4173728390991e+015
field min 1
field max 162007
statistic Basic.rack[7].node[7].app 	"End-to-End Delay"
field count 162007
field mean 0.00026821386703739
field stddev 0.00034310112096694
field sum 43.452523957127
field sqrsum 0.030725653225171
field min 4e-007
field max 0.001189060506
statistic Basic.rack[7].node[7].app 	hops
field count 162007
field mean 3.2819260896134
field stddev 1.1229583437476
field sum 531695
field sqrsum 1949279
field min 2
field max 5
statistic Basic.rack[7].node[8].app 	throughput
field count 161398
field mean 80699.5
field stddev 46591.733710677
field sum 13024737901
field sqrsum 1.4014487734097e+015
field min 1
field max 161398
statistic Basic.rack[7].node[8].app 	"End-to-End Delay"
field count 161398
field mean 0.00026984111403756
field stddev 0.00034391738655908
field sum 43.551816123434
field sqrsum 0.030841973584309
field min 4e-007
field max 0.001186967783
statistic Basic.rack[7].node[8].app 	hops
field count 161398
field mean 3.2880395048266
field stddev 1.1240805746749
field sum 530683
field sqrsum 1948841
field min 2
field max 5
statistic Basic.rack[7].node[9].app 	throughput
field count 160995
field mean 80498
field stddev 46475.397631435
field sum 12959775510
field sqrsum 1.3909770254135e+015
field min 1
field max 160995
statistic Basic.rack[7].node[9].app 	"End-to-End Delay"
field count 160995
field mean 0.00027011866156947
field stddev 0.00034405808340158
field sum 43.487753919377
field sqrsum 0.030804673952965
field min 4e-007
field max 0.0011874713
statistic Basic.rack[7].node[9].app 	hops
field count 160995
field mean 3.2887232522749
field stddev 1.123929045426
field sum 529468
field sqrsum 1944644
field min 2
field max 5
statistic Basic.rack[7].eps.queue[0] 	dropsum
field count 0
field mean nan
field stddev nan
field sum 0
field sqrsum 0
field min nan
field max nan
statistic Basic.rack[7].eps.queue[1] 	dropsum
field count 277566
field mean 138783.5
field stddev 80126.546746381
field sum 38521580961
field sqrsum 7.1282002678743e+015
field min 1
field max 277566
statistic Basic.rack[7].eps.queue[2] 	dropsum
field count 0
field mean nan
field stddev nan
field sum 0
field sqrsum 0
field min nan
field max nan
statistic Basic.rack[7].eps.queue[3] 	dropsum
field count 0
field mean nan
field stddev nan
field sum 0
field sqrsum 0
field min nan
field max nan
statistic Basic.rack[8].node[0].app 	throughput
field count 151129
field mean 75565
field stddev 43627.328753508
field sum 11420062885
field sqrsum 1.1506055958524e+015
field min 1
field max 151129
statistic Basic.rack[8].node[0].app 	"End-to-End Delay"
field count 151129
field mean 0.00036493937599723
field stddev 0.00030157506482703
field sum 55.152922955085
field sqrsum 0.033872190048716
field min 4e-007
field max 0.000834696791
statistic Basic.rack[8].node[0].app 	hops
field count 151129
field mean 2.9005551548677
field stddev 0.74234239158308
field sum 438358
field sqrsum 1354764
field min 2
field max 4
statistic Basic.rack[8].node[1].app 	throughput
field count 152223
field mean 76112
field stddev 43943.139350756
field sum 11585996976
field sqrsum 1.1757740071174e+015
field min 1
field max 152223
statistic Basic.rack[8].node[1].app 	"End-to-End Delay"
field count 152223
field mean 0.00036549825637032
field stddev 0.00030141989406043
field sum 55.637241079458
field sqrsum 0.03416528496664
field min 4e-007
field max 0.000834696316
statistic Basic.rack[8].node[1].app 	hops
field count 152223
field mean 2.9020384567378
field stddev 0.74203206810169
field sum 441757
field sqrsum 1365811
field min 2
field max 4
statistic Basic.rack[8].node[2].app 	throughput
field count 151607
field mean 75804
field stddev 43765.315467845
field sum 11492417028
field sqrsum 1.1615577430483e+015
field min 1
field max 151607
statistic Basic.rack[8].node[2].app 	"End-to-End Delay"
field count 151607
field mean 0.00036680076349925
field stddev 0.00030214617138701
field sum 55.60956335183
field sqrsum 0.034238092075952
field min 4e-007
field max 0.000834695834
statistic Basic.rack[8].node[2].app 	hops
field count 151607
field mean 2.9051165183666
field stddev 0.74381700063757
field sum 440436
field sqrsum 1363396
field min 2
field max 4
statistic Basic.rack[8].node[3].app 	throughput
field count 151672
field mean 75836.5
field stddev 43784.079351594
field sum 11502273628
field sqrsum 1.1630523978952e+015
field min 1
field max 151672
statistic Basic.rack[8].node[3].app 	"End-to-End Delay"
field count 151672
field mean 0.00036679068877681
field stddev 0.00030155578094192
field sum 55.631877348156
field sqrsum 0.034197591833952
field min 4e-007
field max 0.000834694869
statistic Basic.rack[8].node[3].app 	hops
field count 151672
field mean 2.9052099266839
field stddev 0.7424513056983
field sum 440639
field sqrsum 1363755
field min 2
field max 4
statistic Basic.rack[8].node[4].app 	throughput
field count 151486
field mean 75743.5
field stddev 43730.385776559
field sum 11474079841
field sqrsum 1.1587787972224e+015
field min 1
field max 151486
statistic Basic.rack[8].node[4].app 	"End-to-End Delay"
field count 151486
field mean 0.00036460108465342
field stddev 0.00030126845513448
field sum 55.231959909808
field sqrsum 0.033886817382375
field min 4e-007
field max 0.000834695487
statistic Basic.rack[8].node[4].app 	hops
field count 151486
field mean 2.8998983404407
field stddev 0.74197273524824
field sum 439294
field sqrsum 1357304
field min 2
field max 4
statistic Basic.rack[8].node[5].app 	throughput
field count 152637
field mean 76319
field stddev 44062.650856479
field sum 11649103203
field sqrsum 1.1853933267653e+015
field min 1
field max 152637
statistic Basic.rack[8].node[5].app 	"End-to-End Delay"
field count 152637
field mean 0.0003653421990631
field stddev 0.00030132368790303
field sum 55.764737238395
field sqrsum 0.034231944630027
field min 4e-007
field max 0.000834695921
statistic Basic.rack[8].node[5].app 	hops
field count 152637
field mean 2.9016031499571
field stddev 0.74193506017378
field sum 442892
field sqrsum 1369118
field min 2
field max 4
statistic Basic.rack[8].node[6].app 	throughput
field count 151502
field mean 75751.5
field stddev 43735.004578712
field sum 11476503753
field sqrsum 1.1591460065593e+015
field min 1
field max 151502
statistic Basic.rack[8].node[6].app 	"End-to-End Delay"
field count 151502
field mean 0.00036498484857589
field stddev 0.00030160829594807
field sum 55.295934528944
field sqrsum 0.033963855232455
field min 4e-007
field max 0.000834696573
statistic Basic.rack[8].node[6].app 	hops
field count 151502
field mean 2.9008461934496
field stddev 0.74262917121537
field sum 439484
field sqrsum 1358428
field min 2
field max 4
statistic Basic.rack[8].node[7].app 	throughput
field count 151471
field mean 75736
field stddev 43726.05564954
field sum 11471807656
field sqrsum 1.1584346089105e+015
field min 1
field max 151471
statistic Basic.rack[8].node[7].app 	"End-to-End Delay"
field count 151471
field mean 0.00036577106323698
field stddev 0.00030127643633621
field sum 55.403708719569
field sqrsum 0.034013625321251
field min 4e-007
field max 0.000834695464
statistic Basic.rack[8].node[7].app 	hops
field count 151471
field mean 2.9027008470268
field stddev 0.74178676675846
field sum 439675
field sqrsum 1359591
field min 2
field max 4
statistic Basic.rack[8].node[8].app 	throughput
field count 151399
field mean 75700
field stddev 43705.271039849
field sum 11460904300
field sqrsum 1.1567834537119e+015
field min 1
field max 151399
statistic Basic.rack[8].node[8].app 	"End-to-End Delay"
field count 151399
field mean 0.00036511219950461
field stddev 0.00030166603790044
field sum 55.277621892799
field sqrsum 0.033960115229042
field min 4e-007
field max 0.000834695501
statistic Basic.rack[8].node[8].app 	hops
field count 151399
field mean 2.9011882509132
field stddev 0.74296738148584
field sum 439237
field sqrsum 1357881
field min 2
field max 4
statistic Basic.rack[8].node[9].app 	throughput
field count 151836
field mean 75918.5
field stddev 43831.422073668
field sum 11527161366
field sqrsum 1.1668292244991e+015
field min 1
field max 151836
statistic Basic.rack[8].node[9].app 	"End-to-End Delay"
field count 151836
field mean 0.00036601999552041
field stddev 0.00030171022582901
field sum 55.575012039838
field sqrsum 0.034162963039116
field min 4e-007
field max 0.000834696464
statistic Basic.rack[8].node[9].app 	hops
field count 151836
field mean 2.9032245317316
field stddev 0.74274121508845
field sum 440814
field sqrsum 1363544
field min 2
field max 4
statistic Basic.rack[8].eps.queue[0] 	dropsum
field count 0
field mean nan
field stddev nan
field sum 0
field sqrsum 0
field min nan
field max nan
statistic Basic.rack[8].eps.queue[1] 	dropsum
field count 592578
field mean 296289.5
field stddev 171062.67824414
field sum 175574639331
field sqrsum 6.9361170941608e+016
field min 1
field max 592578
statistic Basic.rack[8].eps.queue[2] 	dropsum
field count 0
field mean nan
field stddev nan
field sum 0
field sqrsum 0
field min nan
field max nan
statistic Basic.rack[8].eps.queue[3] 	dropsum
field count 0
field mean nan
field stddev nan
field sum 0
field sqrsum 0
field min nan
field max nan
statistic Basic.rack[9].node[0].app 	throughput
field count 151107
field mean 75554
field stddev 43620.977900547
field sum 11416738278
field sqrsum 1.1501031862286e+015
field min 1
field max 151107
statistic Basic.rack[9].node[0].app 	"End-to-End Delay"
field count 151107
field mean 0.00038120893268912
field stddev 0.00031325941097596
field sum 57.603338191854
field sqrsum 0.036787159249371
field min 4e-007
field max 0.00083678241
statistic Basic.rack[9].node[0].app 	hops
field count 151107
field mean 2.9399498368706
field stddev 0.76952008668859
field sum 444247
field sqrsum 1395543
field min 2
field max 4
statistic Basic.rack[9].node[1].app 	throughput
field count 151628
field mean 75814.5
field stddev 43771.377645672
field sum 11495601006
field sqrsum 1.1620404914255e+015
field min 1
field max 151628
statistic Basic.rack[9].node[1].app 	"End-to-End Delay"
field count 151628
field mean 0.00038027060794098
field stddev 0.00031355717935515
field sum 57.659671740875
field sqrsum 0.036833957691741
field min 4e-007
field max 0.000836783676
statistic Basic.rack[9].node[1].app 	hops
field count 151628
field mean 2.9376896087794
field stddev 0.77042660877048
field sum 445436
field sqrsum 1398552
field min 2
field max 4
statistic Basic.rack[9].node[2].app 	throughput
field count 152394
field mean 76197.5
field stddev 43992.502798772
field sum 11612041815
field sqrsum 1.1797408709173e+015
field min 1
field max 152394
statistic Basic.rack[9].node[2].app 	"End-to-End Delay"
field count 152394
field mean 0.00038087762331298
field stddev 0.00031337101855996
field sum 58.043464527159
field sqrsum 0.037072662047841
field min 4e-007
field max 0.00083678389
statistic Basic.rack[9].node[2].app 	hops
field count 152394
field mean 2.9393217580745
field stddev 0.76993224071473
field sum 447935
field sqrsum 1406963
field min 2
field max 4
statistic Basic.rack[9].node[3].app 	throughput
field count 151684
field mean 75842.5
field stddev 43787.543453209
field sum 11504093770
field sqrsum 1.1633284743037e+015
field min 1
field max 151684
statistic Basic.rack[9].node[3].app 	"End-to-End Delay"
field count 151684
field mean 0.00038085958945833
field stddev 0.00031389023399193
field sum 57.770305967397
field sqrsum 0.036947257936901
field min 4e-007
field max 0.000836782306
statistic Basic.rack[9].node[3].app 	hops
field count 151684
field mean 2.9391564041033
field stddev 0.77116621145865
field sum 445823
field sqrsum 1400549
field min 2
field max 4
statistic Basic.rack[9].node[4].app 	throughput
field count 151271
field mean 75636
field stddev 43668.320622621
field sum 11441533356
field sqrsum 1.1538519420414e+015
field min 1
field max 151271
statistic Basic.rack[9].node[4].app 	"End-to-End Delay"
field count 151271
field mean 0.00038066987581993
field stddev 0.00031414790743131
field sum 57.584312785156
field sqrsum 0.036849284271456
field min 4e-007
field max 0.000836781861
statistic Basic.rack[9].node[4].app 	hops
field count 151271
field mean 2.9386994202458
field stddev 0.77177758501702
field sum 444540
field sqrsum 1396472
field min 2
field max 4
statistic Basic.rack[9].node[5].app 	throughput
field count 152444
field mean 76222.5
field stddev 44006.936555502
field sum 11619662790
field sqrsum 1.1809024561268e+015
field min 1
field max 152444
statistic Basic.rack[9].node[5].app 	"End-to-End Delay"
field count 152444
field mean 0.00038271165743185
field stddev 0.00031317058124594
field sum 58.342095905541
field sqrsum 0.037279171376802
field min 4e-007
field max 0.000836782864
statistic Basic.rack[9].node[5].app 	hops
field count 152444
field mean 2.9438023142925
field stddev 0.76952319870817
field sum 448765
field sqrsum 1411347
field min 2
field max 4
statistic Basic.rack[9].node[6].app 	throughput
field count 151686
field mean 75843.5
field stddev 43788.120803478
field sum 11504397141
field sqrsum 1.1633744912855e+015
field min 1
field max 151686
statistic Basic.rack[9].node[6].app 	"End-to-End Delay"
field count 151686
field mean 0.00038122170296616
field stddev 0.00031320819475327
field sum 57.825995236125
field sqrsum 0.036924727812663
field min 4e-007
field max 0.000836783102
statistic Basic.rack[9].node[6].app 	hops
field count 151686
field mean 2.9402252020622
field stddev 0.76964453950566
field sum 445991
field sqrsum 1401165
field min 2
field max 4
statistic Basic.rack[9].node[7].app 	throughput
field count 151607
field mean 75804
field stddev 43765.315467845
field sum 11492417028
field sqrsum 1.1615577430483e+015
field min 1
field max 151607
statistic Basic.rack[9].node[7].app 	"End-to-End Delay"
field count 151607
field mean 0.00038082492149133
field stddev 0.00031325598658674
field sum 57.735723872536
field sqrsum 0.036864195157759
field min 4e-007
field max 0.000836783818
statistic Basic.rack[9].node[7].app 	hops
field count 151607
field mean 2.9391452901251
field stddev 0.76972307498887
field sum 445595
field sqrsum 1399491
field min 2
field max 4
statistic Basic.rack[9].node[8].app 	throughput
field count 151689
field mean 75845
field stddev 43788.986828882
field sum 11504852205
field sqrsum 1.1634435190336e+015
field min 1
field max 151689
statistic Basic.rack[9].node[8].app 	"End-to-End Delay"
field count 151689
field mean 0.0003809448664787
field stddev 0.0003139176648809
field sum 57.785145851288
field sqrsum 0.03696094249836
field min 4e-007
field max 0.000836783988
statistic Basic.rack[9].node[8].app 	hops
field count 151689
field mean 2.9394418843819
field stddev 0.77128274389287
field sum 445881
field sqrsum 1400877
field min 2
field max 4
statistic Basic.rack[9].node[9].app 	throughput
field count 152209
field mean 76105
field stddev 43939.097898872
field sum 11583865945
field sqrsum 1.175449629037e+015
field min 1
field max 152209
statistic Basic.rack[9].node[9].app 	"End-to-End Delay"
field count 152209
field mean 0.00038090339689968
field stddev 0.00031348770503271
field sum 57.976925138703
field sqrsum 0.037041779095116
field min 4e-007
field max 0.000836783866
statistic Basic.rack[9].node[9].app 	hops
field count 152209
field mean 2.9393531262935
field stddev 0.770311564138
field sum 447396
field sqrsum 1405372
field min 2
field max 4
statistic Basic.rack[9].eps.queue[0] 	dropsum
field count 592699
field mean 296350
field stddev 171097.60793542
field sum 175646348650
field sqrsum 6.9403668680858e+016
field min 1
field max 592699
statistic Basic.rack[9].eps.queue[1] 	dropsum
field count 0
field mean nan
field stddev nan
field sum 0
field sqrsum 0
field min nan
field max nan
statistic Basic.rack[9].eps.queue[2] 	dropsum
field count 0
field mean nan
field stddev nan
field sum 0
field sqrsum 0
field min nan
field max nan
statistic Basic.rack[9].eps.queue[3] 	dropsum
field count 0
field mean nan
field stddev nan
field sum 0
field sqrsum 0
field min nan
field max nan
statistic Basic.rack[10].node[0].app 	throughput
field count 161440
field mean 80720.5
field stddev 46603.85806633
field sum 13031517520
field sqrsum 1.402543136125e+015
field min 1
field max 161440
statistic Basic.rack[10].node[0].app 	"End-to-End Delay"
field count 161440
field mean 0.00028269881409749
field stddev 0.00035865286505691
field sum 45.638896547899
field sqrsum 0.03366826362086
field min 4e-007
field max 0.001184403823
statistic Basic.rack[10].node[0].app 	hops
field count 161440
field mean 3.3191650148662
field stddev 1.1593921195742
field sum 535846
field sqrsum 1995566
field min 2
field max 5
statistic Basic.rack[10].node[1].app 	throughput
field count 160418
field mean 80209.5
field stddev 46308.832078773
field sum 12867047571
field sqrsum 1.3760749805123e+015
field min 1
field max 160418
statistic Basic.rack[10].node[1].app 	"End-to-End Delay"
field count 160418
field mean 0.0002833989369048
field stddev 0.00035904380728883
field sum 45.462290660395
field sqrsum 0.033563714224772
field min 4e-007
field max 0.001144212203
statistic Basic.rack[10].node[1].app 	hops
field count 160418
field mean 3.3203692852423
field stddev 1.1607175896936
field sum 532647
field sqrsum 1984709
field min 2
field max 5
statistic Basic.rack[10].node[2].app 	throughput
field count 160498
field mean 80249.5
field stddev 46331.926089541
field sum 12879884251
field sqrsum 1.3781347349727e+015
field min 1
field max 160498
statistic Basic.rack[10].node[2].app 	"End-to-End Delay"
field count 160498
field mean 0.00028386567245627
field stddev 0.00035883407091817
field sum 45.559872697887
field sqrsum 0.033598781032235
field min 4e-007
field max 0.001157212564
statistic Basic.rack[10].node[2].app 	hops
field count 160498
field mean 3.3225896895911
field stddev 1.16001116038
field sum 533269
field sqrsum 1987803
field min 2
field max 5
statistic Basic.rack[10].node[3].app 	throughput
field count 160944
field mean 80472.5
field stddev 46460.675199571
field sum 12951566040
field sqrsum 1.3896555470165e+015
field min 1
field max 160944
statistic Basic.rack[10].node[3].app 	"End-to-End Delay"
field count 160944
field mean 0.00028209116309763
field stddev 0.0003583094645561
field sum 45.400880153585
field sqrsum 0.033469962359722
field min 4e-007
field max 0.001194088698
statistic Basic.rack[10].node[3].app 	hops
field count 160944
field mean 3.3190550750572
field stddev 1.1576075806855
field sum 534182
field sqrsum 1988652
field min 2
field max 5
statistic Basic.rack[10].node[4].app 	throughput
field count 160950
field mean 80475.5
field stddev 46462.407250378
field sum 12952531725
field sqrsum 1.3898109716031e+015
field min 1
field max 160950
statistic Basic.rack[10].node[4].app 	"End-to-End Delay"
field count 160950
field mean 0.00028373436648868
field stddev 0.00035877835159778
field sum 45.667046286353
field sqrsum 0.033674972427894
field min 4e-007
field max 0.001147417158
statistic Basic.rack[10].node[4].app 	hops
field count 160950
field mean 3.3239142590867
field stddev 1.1588105353514
field sum 534984
field sqrsum 1994370
field min 2
field max 5
statistic Basic.rack[10].node[5].app 	throughput
field count 161063
field mean 80532
field stddev 46495.027540588
field sum 12970725516
field sqrsum 1.3927402994308e+015
field min 1
field max 161063
statistic Basic.rack[10].node[5].app 	"End-to-End Delay"
field count 161063
field mean 0.00028241313675138
field stddev 0.00035816620651571
field sum 45.486307044587
field sqrsum 0.033507452269517
field min 4e-007
field max 0.00120930785
statistic Basic.rack[10].node[5].app 	hops
field count 161063
field mean 3.3200052153505
field stddev 1.1571183901258
field sum 534730
field sqrsum 1990956
field min 2
field max 5
statistic Basic.rack[10].node[6].app 	throughput
field count 160759
field mean 80380
field stddev 46407.27029967
field sum 12921808420
field sqrsum 1.3848689737967e+015
field min 1
field max 160759
statistic Basic.rack[10].node[6].app 	"End-to-End Delay"
field count 160759
field mean 0.00028342372181298
field stddev 0.00035888856639075
field sum 45.562914094932
field sqrsum 0.033619402343531
field min 4e-007
field max 0.001188440714
statistic Basic.rack[10].node[6].app 	hops
field count 160759
field mean 3.321363034107
field stddev 1.1596078744336
field sum 533939
field sqrsum 1989575
field min 2
field max 5
statistic Basic.rack[10].node[7].app 	throughput
field count 161011
field mean 80506
field stddev 46480.016433589
field sum 12962351566
field sqrsum 1.391391779446e+015
field min 1
field max 161011
statistic Basic.rack[10].node[7].app 	"End-to-End Delay"
field count 161011
field mean 0.00028329906919844
field stddev 0.00035878908286253
field sum 45.614266430711
field sqrsum 0.033649233081045
field min 4e-007
field max 0.001122315405
statistic Basic.rack[10].node[7].app 	hops
field count 161011
field mean 3.3225431802796
field stddev 1.1584390472262
field sum 534966
field sqrsum 1993520
field min 2
field max 5
statistic Basic.rack[10].node[8].app 	throughput
field count 160620
field mean 80310.5
field stddev 46367.144455961
field sum 12899472510
field sqrsum 1.381279816195e+015
field min 1
field max 160620
statistic Basic.rack[10].node[8].app 	"End-to-End Delay"
field count 160620
field mean 0.00028371444114705
field stddev 0.00035880370041493
field sum 45.570213537039
field sqrsum 0.033607033054717
field min 4e-007
field max 0.001198408526
statistic Basic.rack[10].node[8].app 	hops
field count 160620
field mean 3.3223882455485
field stddev 1.1595360913575
field sum 533642
field sqrsum 1988922
field min 2
field max 5
statistic Basic.rack[10].node[9].app 	throughput
field count 160929
field mean 80465
field stddev 46456.345072552
field sum 12949151985
field sqrsum 1.3892670362467e+015
field min 1
field max 160929
statistic Basic.rack[10].node[9].app 	"End-to-End Delay"
field count 160929
field mean 0.00028244645940809
field stddev 0.00035866627450535
field sum 45.453826266084
field sqrsum 0.033540291038935
field min 4e-007
field max 0.001181060062
statistic Basic.rack[10].node[9].app 	hops
field count 160929
field mean 3.3176493981818
field stddev 1.1597813219929
field sum 533906
field sqrsum 1987776
field min 2
field max 5
statistic Basic.rack[10].eps.queue[0] 	dropsum
field count 281135
field mean 140568
field stddev 81156.828301752
field sum 39518584680
field sqrsum 7.4067180422028e+015
field min 1
field max 281135
statistic Basic.rack[10].eps.queue[1] 	dropsum
field count 0
field mean nan
field stddev nan
field sum 0
field sqrsum 0
field min nan
field max nan
statistic Basic.rack[10].eps.queue[2] 	dropsum
field count 0
field mean nan
field stddev nan
field sum 0
field sqrsum 0
field min nan
field max nan
statistic Basic.rack[10].eps.queue[3] 	dropsum
field count 0
field mean nan
field stddev nan
field sum 0
field sqrsum 0
field min nan
field max nan
statistic Basic.rack[11].node[0].app 	throughput
field count 161064
field mean 80532.5
field stddev 46495.316215722
field sum 12970886580
field sqrsum 1.3927662410429e+015
field min 1
field max 161064
statistic Basic.rack[11].node[0].app 	"End-to-End Delay"
field count 161064
field mean 0.00027155476466747
field stddev 0.00034614488105864
field sum 43.737696616401
field sqrsum 0.0311751492053
field min 4e-007
field max 0.001127608519
statistic Basic.rack[11].node[0].app 	hops
field count 161064
field mean 3.2919336412855
field stddev 1.1298020045164
field sum 530212
field sqrsum 1951012
field min 2
field max 5
statistic Basic.rack[11].node[1].app 	throughput
field count 160688
field mean 80344.5
field stddev 46386.774365114
field sum 12910397016
field sqrsum 1.3830348872703e+015
field min 1
field max 160688
statistic Basic.rack[11].node[1].app 	"End-to-End Delay"
field count 160688
field mean 0.00027158351527775
field stddev 0.00034624651237869
field sum 43.640211902951
field sqrsum 0.031116187856293
field min 4e-007
field max 0.001096525891
statistic Basic.rack[11].node[1].app 	hops
field count 160688
field mean 3.2917517176143
field stddev 1.130116081391
field sum 528945
field sqrsum 1946379
field min 2
field max 5
statistic Basic.rack[11].node[2].app 	throughput
field count 161038
field mean 80519.5
field stddev 46487.810662223
field sum 12966699241
field sqrsum 1.3920918638145e+015
field min 1
field max 161038
statistic Basic.rack[11].node[2].app 	"End-to-End Delay"
field count 161038
field mean 0.00027123677005615
[...]
field count 151913
field mean 75957
field stddev 43853.650059032
field sum 11538855741
field sqrsum 1.1686053077403e+015
field min 1
field max 151913
statistic Basic.rack[13].node[2].app 	"End-to-End Delay"
field count 151913
field mean 0.00035420483858287
field stddev 0.00029099605039253
field sum 53.808319643639
field sqrsum 0.031922878052368
field min 4e-007
field max 0.000832733426
statistic Basic.rack[13].node[2].app 	hops
field count 151913
field mean 2.8745861117877
field stddev 0.71791900693778
field sum 436687
field sqrsum 1333591
field min 2
field max 4
statistic Basic.rack[13].node[3].app 	throughput
field count 152001
field mean 76001
field stddev 43879.053470876
field sum 11552228001
field sqrsum 1.170637322996e+015
field min 1
field max 152001
statistic Basic.rack[13].node[3].app 	"End-to-End Delay"
field count 152001
field mean 0.00035325818573701
field stddev 0.00029121816764113
field sum 53.695597490211
field sqrsum 0.031859228568423
field min 4e-007
field max 0.000832730723
statistic Basic.rack[13].node[3].app 	hops
field count 152001
field mean 2.8721521568937
field stddev 0.71850783272713
field sum 436570
field sqrsum 1332366
field min 2
field max 4
statistic Basic.rack[13].node[4].app 	throughput
field count 151877
field mean 75939
field stddev 43843.257754186
field sum 11533387503
field sqrsum 1.1677747069913e+015
field min 1
field max 151877
statistic Basic.rack[13].node[4].app 	"End-to-End Delay"
field count 151877
field mean 0.00035311603223126
field stddev 0.00029063607218456
field sum 53.630203627187
field sqrsum 0.031766548137247
field min 4e-007
field max 0.000832732815
statistic Basic.rack[13].node[4].app 	hops
field count 151877
field mean 2.8719095057184
field stddev 0.71708423466236
field sum 436177
field sqrsum 1330757
field min 2
field max 4
statistic Basic.rack[13].node[5].app 	throughput
field count 151772
field mean 75886.5
field stddev 43812.946865053
field sum 11517445878
field sqrsum 1.1653543696792e+015
field min 1
field max 151772
statistic Basic.rack[13].node[5].app 	"End-to-End Delay"
field count 151772
field mean 0.000354016958569
field stddev 0.0002908987380574
field sum 53.729861835935
field sqrsum 0.031864459338247
field min 4e-007
field max 0.000832733222
statistic Basic.rack[13].node[5].app 	hops
field count 151772
field mean 2.8739095485333
field stddev 0.71768064400895
field sum 436179
field sqrsum 1331711
field min 2
field max 4
statistic Basic.rack[13].node[6].app 	throughput
field count 151358
field mean 75679.5
field stddev 43693.435359331
field sum 11454697761
field sqrsum 1.1558439140389e+015
field min 1
field max 151358
statistic Basic.rack[13].node[6].app 	"End-to-End Delay"
field count 151358
field mean 0.00035345548168604
field stddev 0.00029124005969547
field sum 53.498314797035
field sqrsum 0.031747490269799
field min 4e-007
field max 0.000832733544
statistic Basic.rack[13].node[6].app 	hops
field count 151358
field mean 2.872778445804
field stddev 0.71858893021302
field sum 434818
field sqrsum 1327292
field min 2
field max 4
statistic Basic.rack[13].node[7].app 	throughput
field count 152158
field mean 76079.5
field stddev 43924.375467008
field sum 11576104561
field sqrsum 1.1742684705633e+015
field min 1
field max 152158
statistic Basic.rack[13].node[7].app 	"End-to-End Delay"
field count 152158
field mean 0.00035421563087023
field stddev 0.00029173050521688
field sum 53.896741961952
field sqrsum 0.03204064673233
field min 4e-007
field max 0.000832729809
statistic Basic.rack[13].node[7].app 	hops
field count 152158
field mean 2.8744068665466
field stddev 0.71968833196978
field sum 437364
field sqrsum 1335972
field min 2
field max 4
statistic Basic.rack[13].node[8].app 	throughput
field count 151088
field mean 75544.5
field stddev 43615.49307299
field sum 11413867416
field sqrsum 1.1496694047215e+015
field min 1
field max 151088
statistic Basic.rack[13].node[8].app 	"End-to-End Delay"
field count 151088
field mean 0.0003541502399184
field stddev 0.0002907204594136
field sum 53.507851448791
field sqrsum 0.031719447741417
field min 4e-007
field max 0.000832731865
statistic Basic.rack[13].node[8].app 	hops
field count 151088
field mean 2.8743712273642
field stddev 0.71725969563629
field sum 434283
field sqrsum 1326019
field min 2
field max 4
statistic Basic.rack[13].node[9].app 	throughput
field count 151697
field mean 75849
field stddev 43791.296229959
field sum 11506065753
field sqrsum 1.1636276063771e+015
field min 1
field max 151697
statistic Basic.rack[13].node[9].app 	"End-to-End Delay"
field count 151697
field mean 0.00035322932637652
field stddev 0.00029141651107872
field sum 53.583829123339
field sqrsum 0.031809947701953
field min 4e-007
field max 0.000832733323
statistic Basic.rack[13].node[9].app 	hops
field count 151697
field mean 2.8720805289492
field stddev 0.71906329088437
field sum 435686
field sqrsum 1329760
field min 2
field max 4
statistic Basic.rack[13].eps.queue[0] 	dropsum
field count 592890
field mean 296445.5
field stddev 171152.74488613
field sum 175759572495
field sqrsum 6.9470787210635e+016
field min 1
field max 592890
statistic Basic.rack[13].eps.queue[1] 	dropsum
field count 0
field mean nan
field stddev nan
field sum 0
field sqrsum 0
field min nan
field max nan
statistic Basic.rack[13].eps.queue[2] 	dropsum
field count 0
field mean nan
field stddev nan
field sum 0
field sqrsum 0
field min nan
field max nan
statistic Basic.rack[13].eps.queue[3] 	dropsum
field count 0
field mean nan
field stddev nan
field sum 0
field sqrsum 0
field min nan
field max nan
statistic Basic.rack[14].node[0].app 	throughput
field count 160667
field mean 80334
field stddev 46380.712187288
field sum 12907022778
field sqrsum 1.3824927214562e+015
field min 1
field max 160667
statistic Basic.rack[14].node[0].app 	"End-to-End Delay"
field count 160667
field mean 0.00025899390804335
field stddev 0.00033076987385969
field sum 41.611774223601
field sqrsum 0.028355455739788
field min 4e-007
field max 0.001098080059
statistic Basic.rack[14].node[0].app 	hops
field count 160667
field mean 3.2625243516092
field stddev 1.0940885577309
field sum 524180
field sqrsum 1902472
field min 2
field max 5
statistic Basic.rack[14].node[1].app 	throughput
field count 161604
field mean 80802.5
field stddev 46651.200788404
field sum 13058007210
field sqrsum 1.4068218174456e+015
field min 1
field max 161604
statistic Basic.rack[14].node[1].app 	"End-to-End Delay"
field count 161604
field mean 0.000256985554914
field stddev 0.00032968828625709
field sum 41.529893616322
field sqrsum 0.028237918400582
field min 4e-007
field max 0.001116438919
statistic Basic.rack[14].node[1].app 	hops
field count 161604
field mean 3.2580629192347
field stddev 1.0901056443073
field sum 526516
field sqrsum 1907460
field min 2
field max 5
statistic Basic.rack[14].node[2].app 	throughput
field count 161504
field mean 80752.5
field stddev 46622.333274945
field sum 13041851760
field sqrsum 1.4042118317153e+015
field min 1
field max 161504
statistic Basic.rack[14].node[2].app 	"End-to-End Delay"
field count 161504
field mean 0.00025780498579507
field stddev 0.00033046353900363
field sum 41.636536425846
field sqrsum 0.028371227623918
field min 4e-007
field max 0.001102256521
statistic Basic.rack[14].node[2].app 	hops
field count 161504
field mean 3.2591514761244
field stddev 1.0928812459034
field sum 526366
field sqrsum 1908404
field min 2
field max 5
statistic Basic.rack[14].node[3].app 	throughput
field count 161353
field mean 80677
field stddev 46578.743329621
field sum 13017475981
field sqrsum 1.4002768738002e+015
field min 1
field max 161353
statistic Basic.rack[14].node[3].app 	"End-to-End Delay"
field count 161353
field mean 0.00025595473023403
field stddev 0.00032920844136729
field sum 41.299063587452
field sqrsum 0.028057729661758
field min 4e-007
field max 0.001125127027
statistic Basic.rack[14].node[3].app 	hops
field count 161353
field mean 3.2534009283992
field stddev 1.0906135775835
field sum 524946
field sqrsum 1899778
field min 2
field max 5
statistic Basic.rack[14].node[4].app 	throughput
field count 161456
field mean 80728.5
field stddev 46608.476868484
field sum 13034100696
field sqrsum 1.4029601860158e+015
field min 1
field max 161456
statistic Basic.rack[14].node[4].app 	"End-to-End Delay"
field count 161456
field mean 0.00025812082193366
field stddev 0.00033033757358528
field sum 41.675155426121
field sqrsum 0.028375665214077
field min 4e-007
field max 0.001112012247
statistic Basic.rack[14].node[4].app 	hops
field count 161456
field mean 3.2591170349817
field stddev 1.0933669276951
field sum 526204
field sqrsum 1907972
field min 2
field max 5
statistic Basic.rack[14].node[5].app 	throughput
field count 160346
field mean 80173.5
field stddev 46288.047469082
field sum 12855500031
field sqrsum 1.3742229571472e+015
field min 1
field max 160346
statistic Basic.rack[14].node[5].app 	"End-to-End Delay"
field count 160346
field mean 0.00025833352022251
field stddev 0.00033065025222908
field sum 41.422746633598
field sqrsum 0.028231336951315
field min 4e-007
field max 0.001134476261
statistic Basic.rack[14].node[5].app 	hops
field count 160346
field mean 3.2612662617091
field stddev 1.0931762371347
field sum 522931
field sqrsum 1897035
field min 2
field max 5
statistic Basic.rack[14].node[6].app 	throughput
field count 160727
field mean 80364
field stddev 46398.032695363
field sum 12916664628
field sqrsum 1.3840421426646e+015
field min 1
field max 160727
statistic Basic.rack[14].node[6].app 	"End-to-End Delay"
field count 160727
field mean 0.00025619617843184
field stddev 0.0003292665589792
field sum 41.177643170815
field sqrsum 0.027974899870055
field min 4e-007
field max 0.001096142856
statistic Basic.rack[14].node[6].app 	hops
field count 160727
field mean 3.2533550679102
field stddev 1.0908717483886
field sum 522902
field sqrsum 1892450
field min 2
field max 5
statistic Basic.rack[14].node[7].app 	throughput
field count 160772
field mean 80386.5
field stddev 46411.02307642
field sum 12923898378
field sqrsum 1.3852049679847e+015
field min 1
field max 160772
statistic Basic.rack[14].node[7].app 	"End-to-End Delay"
field count 160772
field mean 0.00025826193826165
field stddev 0.00033019487234994
field sum 41.521288338203
field sqrsum 0.028252014093559
field min 4e-007
field max 0.001138567734
statistic Basic.rack[14].node[7].app 	hops
field count 160772
field mean 3.2601448013336
field stddev 1.0925468896307
field sum 524140
field sqrsum 1900678
field min 2
field max 5
statistic Basic.rack[14].node[8].app 	throughput
field count 160949
field mean 80475
field stddev 46462.118575244
field sum 12952370775
field sqrsum 1.3897850667006e+015
field min 1
field max 160949
statistic Basic.rack[14].node[8].app 	"End-to-End Delay"
field count 160949
field mean 0.00025804696431018
field stddev 0.00033034606224574
field sum 41.532400858759
field sqrsum 0.028281327134477
field min 4e-007
field max 0.001127206888
statistic Basic.rack[14].node[8].app 	hops
field count 160949
field mean 3.2581438840875
field stddev 1.0939667111691
field sum 524395
field sqrsum 1901171
field min 2
field max 5
statistic Basic.rack[14].node[9].app 	throughput
field count 161091
field mean 80546
field stddev 46503.110444356
field sum 12975235686
field sqrsum 1.3934667863408e+015
field min 1
field max 161091
statistic Basic.rack[14].node[9].app 	"End-to-End Delay"
field count 161091
field mean 0.00025650425803523
field stddev 0.00032959732961467
field sum 41.320527431154
field sqrsum 0.028098806676273
field min 4e-007
field max 0.001133953808
statistic Basic.rack[14].node[9].app 	hops
field count 161091
field mean 3.2543903756262
field stddev 1.0919177295281
field sum 524253
field sqrsum 1898189
field min 2
field max 5
statistic Basic.rack[14].eps.queue[0] 	dropsum
field count 280603
field mean 140302
field stddev 81003.253130147
field sum 39369162106
field sqrsum 7.3647497860073e+015
field min 1
field max 280603
statistic Basic.rack[14].eps.queue[1] 	dropsum
field count 0
field mean nan
field stddev nan
field sum 0
field sqrsum 0
field min nan
field max nan
statistic Basic.rack[14].eps.queue[2] 	dropsum
field count 0
field mean nan
field stddev nan
field sum 0
field sqrsum 0
field min nan
field max nan
statistic Basic.rack[14].eps.queue[3] 	dropsum
field count 0
field mean nan
field stddev nan
field sum 0
field sqrsum 0
field min nan
field max nan
statistic Basic.rack[15].node[0].app 	throughput
field count 161413
field mean 80707
field stddev 46596.063837696
field sum 13027158991
field sqrsum 1.4018395518625e+015
field min 1
field max 161413
statistic Basic.rack[15].node[0].app 	"End-to-End Delay"
field count 161413
field mean 0.00027382908807218
field stddev 0.00034836721734847
field sum 44.199574592995
field sqrsum 0.031692044025666
field min 4e-007
field max 0.001106611978
statistic Basic.rack[15].node[0].app 	hops
field count 161413
field mean 3.2983278918055
field stddev 1.1341190620908
field sum 532393
field sqrsum 1963619
field min 2
field max 5
statistic Basic.rack[15].node[1].app 	throughput
field count 160552
field mean 80276.5
field stddev 46347.514546809
field sum 12888552628
field sqrsum 1.379526230538e+015
field min 1
field max 160552
statistic Basic.rack[15].node[1].app 	"End-to-End Delay"
field count 160552
field mean 0.00027377724808374
field stddev 0.00034869317689819
field sum 43.95548473434
field sqrsum 0.031554915106531
field min 4e-007
field max 0.001148996848
statistic Basic.rack[15].node[1].app 	hops
field count 160552
field mean 3.2972868603319
field stddev 1.1351061443017
field sum 529386
field sqrsum 1952402
field min 2
field max 5
statistic Basic.rack[15].node[2].app 	throughput
field count 161223
field mean 80612
field stddev 46541.215562123
field sum 12996508476
field sqrsum 1.3968950561869e+015
field min 1
field max 161223
statistic Basic.rack[15].node[2].app 	"End-to-End Delay"
field count 161223
field mean 0.00027327595101285
field stddev 0.00034840323846708
field sum 44.058368650145
field sqrsum 0.031609995490694
field min 4e-007
field max 0.001124042903
statistic Basic.rack[15].node[2].app 	hops
field count 161223
field mean 3.2949144973112
field stddev 1.135727931659
field sum 531216
field sqrsum 1958268
field min 2
field max 5
statistic Basic.rack[15].node[3].app 	throughput
field count 161758
field mean 80879.5
field stddev 46695.656759132
field sum 13082906161
field sqrsum 1.4108475174961e+015
field min 1
field max 161758
statistic Basic.rack[15].node[3].app 	"End-to-End Delay"
field count 161758
field mean 0.00027356200342278
field stddev 0.0003483499946382
field sum 44.250842549662
field sqrsum 0.031734192085211
field min 4e-007
field max 0.001112223711
statistic Basic.rack[15].node[3].app 	hops
field count 161758
field mean 3.2976421568021
field stddev 1.1341562757296
field sum 533420
field sqrsum 1967098
field min 2
field max 5
statistic Basic.rack[15].node[4].app 	throughput
field count 160277
field mean 80139
field stddev 46268.128884795
field sum 12844438503
field sqrsum 1.3724496614431e+015
field min 1
field max 160277
statistic Basic.rack[15].node[4].app 	"End-to-End Delay"
field count 160277
field mean 0.00027355366837873
field stddev 0.00034872962050239
field sum 43.844361306737
field sqrsum 0.031485326595806
field min 4e-007
field max 0.001132250078
statistic Basic.rack[15].node[4].app 	hops
field count 160277
field mean 3.2972166935992
field stddev 1.1348651427393
field sum 528468
field sqrsum 1948896
field min 2
field max 5
statistic Basic.rack[15].node[5].app 	throughput
field count 161124
field mean 80562.5
field stddev 46512.636723798
field sum 12980552250
field sqrsum 1.3943233273368e+015
field min 1
field max 161124
statistic Basic.rack[15].node[5].app 	"End-to-End Delay"
field count 161124
field mean 0.0002735703003691
field stddev 0.00034868617661335
field sum 44.078741076671
field sqrsum 0.031648299039916
field min 4e-007
field max 0.001124380461
statistic Basic.rack[15].node[5].app 	hops
field count 161124
field mean 3.2967279858991
field stddev 1.1355487634502
field sum 531182
field sqrsum 1958926
field min 2
field max 5
statistic Basic.rack[15].node[6].app 	throughput
field count 161167
field mean 80584
field stddev 46525.049754586
field sum 12987481528
field sqrsum 1.395439952776e+015
field min 1
field max 161167
statistic Basic.rack[15].node[6].app 	"End-to-End Delay"
field count 161167
field mean 0.00027323425050036
field stddev 0.000348453007906
field sum 44.036344450391
field sqrsum 0.031600932501182
field min 4e-007
field max 0.001114653475
statistic Basic.rack[15].node[6].app 	hops
field count 161167
field mean 3.2954513020656
field stddev 1.1347770022576
field sum 531118
field sqrsum 1957810
field min 2
field max 5
statistic Basic.rack[15].node[7].app 	throughput
field count 161761
field mean 80881
field stddev 46696.522784536
field sum 13083391441
field sqrsum 1.4109260163889e+015
field min 1
field max 161761
statistic Basic.rack[15].node[7].app 	"End-to-End Delay"
field count 161761
field mean 0.00027300094982522
field stddev 0.00034852935926811
field sum 44.160906644677
field sqrsum 0.031705395719753
field min 4e-007
field max 0.001130932018
statistic Basic.rack[15].node[7].app 	hops
field count 161761
field mean 3.2936183628934
field stddev 1.1359991001163
field sum 532779
field sqrsum 1963521
field min 2
field max 5
statistic Basic.rack[15].node[8].app 	throughput
field count 161014
field mean 80507.5
field stddev 46480.882458992
field sum 12962834605
field sqrsum 1.3914695550045e+015
field min 1
field max 161014
statistic Basic.rack[15].node[8].app 	"End-to-End Delay"
field count 161014
field mean 0.00027356210387832
field stddev 0.00034853737840692
field sum 44.047328593864
field sqrsum 0.031609266065941
field min 4e-007
field max 0.001132449814
statistic Basic.rack[15].node[8].app 	hops
field count 161014
field mean 3.2958065758257
field stddev 1.1354897901201
field sum 530671
field sqrsum 1956589
field min 2
field max 5
statistic Basic.rack[15].node[9].app 	throughput
field count 161413
field mean 80707
field stddev 46596.063837696
field sum 13027158991
field sqrsum 1.4018395518625e+015
field min 1
field max 161413
statistic Basic.rack[15].node[9].app 	"End-to-End Delay"
field count 161413
field mean 0.00027342648486388
field stddev 0.00034863788248252
field sum 44.134589201333
field sqrsum 0.031686931585355
field min 4e-007
field max 0.001113078114
statistic Basic.rack[15].node[9].app 	hops
field count 161413
field mean 3.2965498441885
field stddev 1.1350684328432
field sum 532106
field sqrsum 1962074
field min 2
field max 5
statistic Basic.rack[15].eps.queue[0] 	dropsum
field count 0
field mean nan
field stddev nan
field sum 0
field sqrsum 0
field min nan
field max nan
statistic Basic.rack[15].eps.queue[1] 	dropsum
field count 277383
field mean 138692
field stddev 80073.71919675
field sum 38470803036
field sqrsum 7.1141106626242e+015
field min 1
field max 277383
statistic Basic.rack[15].eps.queue[2] 	dropsum
field count 0
field mean nan
field stddev nan
field sum 0
field sqrsum 0
field min nan
field max nan
statistic Basic.rack[15].eps.queue[3] 	dropsum
field count 0
field mean nan
field stddev nan
field sum 0
field sqrsum 0
field min nan
field max nan
