version 2
run Basic-18-20180510-16:13:58-23900
attr configname Basic
attr datetime 20180510-16:13:58
attr experiment Basic
attr inifile omnetpp.ini
attr iterationvars "$0=exponential(0.25 ms), $1=4, $2=4"
attr iterationvarsf exponential(0.25_ms),4,4-
attr measurement "$0=exponential(0.25 ms), $1=4, $2=4"
attr network Networks.Basic
attr processid 23900
attr repetition 0
attr replication #0
attr resultdir results
attr runnumber 18
attr seedset 18
param **.frameCapacity 50
param **.packetLength "1024 bytes"
param **.pattern 4
param **.sendIaTime "exponential(0.25 ms)"
param **.tp 4

statistic Basic.rack[0].node[0].app 	throughput
field count 40054
field mean 20027.5
field stddev 11562.738177727
field sum 802181485
field sqrsum 21420652193955
field min 1
field max 40054
statistic Basic.rack[0].node[0].app 	"End-to-End Delay"
field count 40054
field mean 2.1627829053427e-005
field stddev 8.9986228800968e-006
field sum 0.86628106490597
field sqrsum 2.1979079019863e-005
field min 9.4416e-006
field max 8.5940574e-005
statistic Basic.rack[0].node[0].app 	hops
field count 40054
field mean 4.9991761122485
field stddev 0.70548908433713
field sum 200237
field sqrsum 1020955
field min 4
field max 6
statistic Basic.rack[0].node[1].app 	throughput
field count 39927
field mean 19964
field stddev 11526.076435631
field sum 797102628
field sqrsum 21217543452980
field min 1
field max 39927
statistic Basic.rack[0].node[1].app 	"End-to-End Delay"
field count 39927
field mean 2.1562124772183e-005
field stddev 8.9837978540974e-006
field sum 0.86091095577897
field sqrsum 2.178544196341e-005
field min 9.4416e-006
field max 8.1495151e-005
statistic Basic.rack[0].node[1].app 	hops
field count 39927
field mean 5.0049089588499
field stddev 0.70270154162086
field sum 199831
field sqrsum 1019851
field min 4
field max 6
statistic Basic.rack[0].node[2].app 	throughput
field count 39958
field mean 19979.5
field stddev 11535.025364804
field sum 798340861
field sqrsum 21267002196179
field min 1
field max 39958
statistic Basic.rack[0].node[2].app 	"End-to-End Delay"
field count 39958
field mean 2.1628813704864e-005
field stddev 8.9776735067837e-006
field sum 0.86424413801898
field sqrsum 2.1913054579781e-005
field min 9.4416e-006
field max 9.4246125e-005
statistic Basic.rack[0].node[2].app 	hops
field count 39958
field mean 5.001226287602
field stddev 0.70919967871947
field sum 199839
field sqrsum 1019537
field min 4
field max 6
statistic Basic.rack[0].node[3].app 	throughput
field count 39821
field mean 19911
field stddev 11495.476871361
field sum 792875931
field sqrsum 21049005924211
field min 1
field max 39821
statistic Basic.rack[0].node[3].app 	"End-to-End Delay"
field count 39821
field mean 2.1767926385097e-005
field stddev 9.113881135154e-006
field sum 0.86682059658096
field sqrsum 2.2176448800007e-005
field min 9.4416e-006
field max 9.1828272e-005
statistic Basic.rack[0].node[3].app 	hops
field count 39821
field mean 5.0030637101027
field stddev 0.70610500987214
field sum 199227
field sqrsum 1016599
field min 4
field max 6
statistic Basic.rack[0].node[4].app 	throughput
field count 40097
field mean 20049
field stddev 11575.151208516
field sum 803904753
field sqrsum 21489713888945
field min 1
field max 40097
statistic Basic.rack[0].node[4].app 	"End-to-End Delay"
field count 40097
field mean 2.1624199111953e-005
field stddev 9.0427906301394e-006
field sum 0.86706551179196
field sqrsum 2.2028329883306e-005
field min 9.4416e-006
field max 8.0751762e-005
statistic Basic.rack[0].node[4].app 	hops
field count 40097
field mean 4.9943886076265
field stddev 0.70928557679346
field sum 200260
field sqrsum 1020348
field min 4
field max 6
statistic Basic.rack[0].node[5].app 	throughput
field count 39977
field mean 19989
field stddev 11540.510192362
field sum 799100253
field sqrsum 21297353576205
field min 1
field max 39977
statistic Basic.rack[0].node[5].app 	"End-to-End Delay"
field count 39977
field mean 2.1570393243789e-005
field stddev 8.9825342653019e-006
field sum 0.86231961070697
field sqrsum 2.182607351575e-005
field min 9.4416e-006
field max 8.6233807e-005
statistic Basic.rack[0].node[5].app 	hops
field count 39977
field mean 5.0005253020487
field stddev 0.70970200110656
field sum 199906
field sqrsum 1019770
field min 4
field max 6
statistic Basic.rack[0].node[6].app 	throughput
field count 40162
field mean 20081.5
field stddev 11593.915092266
field sum 806513203
field sqrsum 21594391010325
field min 1
field max 40162
statistic Basic.rack[0].node[6].app 	"End-to-End Delay"
field count 40162
field mean 2.1677767993152e-005
field stddev 9.0137743036626e-006
field sum 0.87062251814096
field sqrsum 2.2136158994247e-005
field min 9.4416e-006
field max 8.4870485e-005
statistic Basic.rack[0].node[6].app 	hops
field count 40162
field mean 4.9995269159902
field stddev 0.71136346015662
field sum 200791
field sqrsum 1024183
field min 4
field max 6
statistic Basic.rack[0].node[7].app 	throughput
field count 39954
field mean 19977.5
field stddev 11533.870664265
field sum 798181035
field sqrsum 21260616108605
field min 1
field max 39954
statistic Basic.rack[0].node[7].app 	"End-to-End Delay"
field count 39954
field mean 2.1729078867046e-005
field stddev 9.046204254464e-006
field sum 0.86816361705396
field sqrsum 2.2133901971869e-005
field min 9.4416e-006
field max 8.6988218e-005
statistic Basic.rack[0].node[7].app 	hops
field count 39954
field mean 5.0036542023327
field stddev 0.70768999688509
field sum 199916
field sqrsum 1020320
field min 4
field max 6
statistic Basic.rack[0].node[8].app 	throughput
field count 39957
field mean 19979
field stddev 11534.736689669
field sum 798300903
field sqrsum 21265405554415
field min 1
field max 39957
statistic Basic.rack[0].node[8].app 	"End-to-End Delay"
field count 39957
field mean 2.1731877894411e-005
field stddev 9.0876109547373e-006
field sum 0.86834064502696
field sqrsum 2.217042605746e-005
field min 9.4416e-006
field max 9.2034966e-005
statistic Basic.rack[0].node[8].app 	hops
field count 39957
field mean 4.9998498385765
field stddev 0.70922724220449
field sum 199779
field sqrsum 1018963
field min 4
field max 6
statistic Basic.rack[0].node[9].app 	throughput
field count 40090
field mean 20045.5
field stddev 11573.130482573
field sum 803624095
field sqrsum 21478461187065
field min 1
field max 40090
statistic Basic.rack[0].node[9].app 	"End-to-End Delay"
field count 40090
field mean 2.1733883108031e-005
field stddev 9.0747669695327e-006
field sum 0.87131137380096
field sqrsum 2.2238364645145e-005
field min 9.4416e-006
field max 9.8729252e-005
statistic Basic.rack[0].node[9].app 	hops
field count 40090
field mean 4.9999501122474
field stddev 0.70903555629877
field sum 200448
field sqrsum 1022384
field min 4
field max 6
statistic Basic.rack[0].eps.queue[0] 	dropsum
field count 0
field mean nan
field stddev nan
field sum 0
field sqrsum 0
field min nan
field max nan
statistic Basic.rack[0].eps.queue[1] 	dropsum
field count 0
field mean nan
field stddev nan
field sum 0
field sqrsum 0
field min nan
field max nan
statistic Basic.rack[0].eps.queue[2] 	dropsum
field count 0
field mean nan
field stddev nan
field sum 0
field sqrsum 0
field min nan
field max nan
statistic Basic.rack[0].eps.queue[3] 	dropsum
field count 0
field mean nan
field stddev nan
field sum 0
field sqrsum 0
field min nan
field max nan
statistic Basic.rack[1].node[0].app 	throughput
field count 40393
field mean 20197
field stddev 11660.599048362
field sum 815817421
field sqrsum 21969147330109
field min 1
field max 40393
statistic Basic.rack[1].node[0].app 	"End-to-End Delay"
field count 40393
field mean 1.6721130692771e-005
field stddev 1.2185998525718e-005
field sum 0.6754166320731
field sqrsum 1.7291883615265e-005
field min 8.496e-007
field max 7.7519862e-005
statistic Basic.rack[1].node[0].app 	hops
field count 40393
field mean 5.0003713514718
field stddev 0.70754420111901
field sum 201980
field sqrsum 1030196
field min 4
field max 6
statistic Basic.rack[1].node[1].app 	throughput
field count 39795
field mean 19898
field stddev 11487.971317861
field sum 791840910
field sqrsum 21007803289270
field min 1
field max 39795
statistic Basic.rack[1].node[1].app 	"End-to-End Delay"
field count 39795
field mean 1.6605298453225e-005
field stddev 1.2137503021387e-005
field sum 0.6608078519461
field sqrsum 1.6835323075771e-005
field min 8.496e-007
field max 8.2931699e-005
statistic Basic.rack[1].node[1].app 	hops
field count 39795
field mean 4.9952506596306
field stddev 0.7055966072861
field sum 198786
field sqrsum 1012798
field min 4
field max 6
statistic Basic.rack[1].node[2].app 	throughput
field count 40135
field mean 20068
field stddev 11586.120863631
field sum 805429180
field sqrsum 21550868569260
field min 1
field max 40135
statistic Basic.rack[1].node[2].app 	"End-to-End Delay"
field count 40135
field mean 1.6558217953784e-005
field stddev 1.2114302546729e-005
field sum 0.66456407757511
field sqrsum 1.6893915236202e-005
field min 8.496e-007
field max 7.5274282e-005
statistic Basic.rack[1].node[2].app 	hops
field count 40135
field mean 4.9951663136913
field stddev 0.7065791219215
field sum 200481
field sqrsum 1021473
field min 4
field max 6
statistic Basic.rack[1].node[3].app 	throughput
field count 40456
field mean 20228.5
field stddev 11678.785581843
field sum 818364196
field sqrsum 22072100730316
field min 1
field max 40456
statistic Basic.rack[1].node[3].app 	"End-to-End Delay"
field count 40456
field mean 1.6624914900141e-005
field stddev 1.2112095141303e-005
field sum 0.67257755720011
field sqrsum 1.7116408396839e-005
field min 8.496e-007
field max 8.6309782e-005
statistic Basic.rack[1].node[3].app 	hops
field count 40456
field mean 4.9993573264781
field stddev 0.70578560186153
field sum 202254
field sqrsum 1031292
field min 4
field max 6
statistic Basic.rack[1].node[4].app 	throughput
field count 39924
field mean 19962.5
field stddev 11525.210410227
field sum 796982850
field sqrsum 21212761196550
field min 1
field max 39924
statistic Basic.rack[1].node[4].app 	"End-to-End Delay"
field count 39924
field mean 1.667821524577e-005
field stddev 1.2056789924006e-005
field sum 0.6658610654721
field sqrsum 1.6908828308474e-005
field min 8.496e-007
field max 8.3048679e-005
statistic Basic.rack[1].node[4].app 	hops
field count 39924
field mean 5.0033313295261
field stddev 0.7060974986918
field sum 199753
field sqrsum 1019335
field min 4
field max 6
statistic Basic.rack[1].node[5].app 	throughput
field count 40086
field mean 20043.5
field stddev 11571.975782035
field sum 803463741
field sqrsum 21472032835731
field min 1
field max 40086
statistic Basic.rack[1].node[5].app 	"End-to-End Delay"
field count 40086
field mean 1.6657454929354e-005
field stddev 1.2142464626598e-005
field sum 0.6677307382981
field sqrsum 1.7032804919485e-005
field min 8.496e-007
field max 8.2482287e-005
statistic Basic.rack[1].node[5].app 	hops
field count 40086
field mean 4.9991518235793
field stddev 0.70766172052035
field sum 200396
field sqrsum 1021884
field min 4
field max 6
statistic Basic.rack[1].node[6].app 	throughput
field count 39769
field mean 19885
field stddev 11480.465764361
field sum 790806565
field sqrsum 20966654457845
field min 1
field max 39769
statistic Basic.rack[1].node[6].app 	"End-to-End Delay"
field count 39769
field mean 1.6713081808144e-005
field stddev 1.2096035602399e-005
field sum 0.6646625504281
field sqrsum 1.6927177805962e-005
field min 8.496e-007
field max 8.3096225e-005
statistic Basic.rack[1].node[6].app 	hops
field count 39769
field mean 5.0049536070809
field stddev 0.7053268904665
field sum 199042
field sqrsum 1015980
field min 4
field max 6
statistic Basic.rack[1].node[7].app 	throughput
field count 40326
field mean 20163.5
field stddev 11641.257814343
field sum 813113301
field sqrsum 21860009021851
field min 1
field max 40326
statistic Basic.rack[1].node[7].app 	"End-to-End Delay"
field count 40326
field mean 1.6603477805289e-005
field stddev 1.2064635207174e-005
field sum 0.6695518459761
field sqrsum 1.6986411633814e-005
field min 8.496e-007
field max 8.1191894e-005
statistic Basic.rack[1].node[7].app 	hops
field count 40326
field mean 5.0014134801369
field stddev 0.70872552119464
field sum 201687
field sqrsum 1028975
field min 4
field max 6
statistic Basic.rack[1].node[8].app 	throughput
field count 40067
field mean 20034
field stddev 11566.490954477
field sum 802702278
field sqrsum 21441515682510
field min 1
field max 40067
statistic Basic.rack[1].node[8].app 	"End-to-End Delay"
field count 40067
field mean 1.6611219699306e-005
field stddev 1.209219973175e-005
field sum 0.66556173969211
field sqrsum 1.6914294661007e-005
field min 8.496e-007
field max 7.578536e-005
statistic Basic.rack[1].node[8].app 	hops
field count 40067
field mean 4.9997005016597
field stddev 0.70740667950173
field sum 200323
field sqrsum 1021605
field min 4
field max 6
statistic Basic.rack[1].node[9].app 	throughput
field count 40128
field mean 20064.5
field stddev 11584.100137689
field sum 805148256
field sqrsum 21539594527264
field min 1
field max 40128
statistic Basic.rack[1].node[9].app 	"End-to-End Delay"
field count 40128
field mean 1.6597051725082e-005
field stddev 1.2019775018648e-005
field sum 0.6660064916241
field sqrsum 1.6851092174603e-005
field min 8.496e-007
field max 7.5379772e-005
statistic Basic.rack[1].node[9].app 	hops
field count 40128
field mean 5.0030901116427
field stddev 0.70548578355494
field sum 200764
field sqrsum 1024412
field min 4
field max 6
statistic Basic.rack[1].eps.queue[0] 	dropsum
field count 0
field mean nan
field stddev nan
field sum 0
field sqrsum 0
field min nan
field max nan
statistic Basic.rack[1].eps.queue[1] 	dropsum
field count 0
field mean nan
field stddev nan
field sum 0
field sqrsum 0
field min nan
field max nan
statistic Basic.rack[1].eps.queue[2] 	dropsum
field count 0
field mean nan
field stddev nan
field sum 0
field sqrsum 0
field min nan
field max nan
statistic Basic.rack[1].eps.queue[3] 	dropsum
field count 0
field mean nan
field stddev nan
field sum 0
field sqrsum 0
field min nan
field max nan
statistic Basic.rack[2].node[0].app 	throughput
field count 39861
field mean 19931
field stddev 11507.023876746
field sum 794469591
field sqrsum 21112499734431
field min 1
field max 39861
statistic Basic.rack[2].node[0].app 	"End-to-End Delay"
field count 39861
field mean 1.7920808563787e-005
field stddev 8.4995605539227e-006
field sum 0.71434135016112
field sqrsum 1.5681161815681e-005
field min 9.4416e-006
field max 9.237734e-005
statistic Basic.rack[2].node[0].app 	hops
field count 39861
field mean 5.4966006873887
field stddev 0.49999471630779
field sum 219100
field sqrsum 1214270
field min 5
field max 6
statistic Basic.rack[2].node[1].app 	throughput
field count 39921
field mean 19961
field stddev 11524.344384823
field sum 796863081
field sqrsum 21207979658761
field min 1
field max 39921
statistic Basic.rack[2].node[1].app 	"End-to-End Delay"
field count 39921
field mean 1.792282642364e-005
field stddev 8.3786011157081e-006
field sum 0.71549715365812
field sqrsum 1.5626153481336e-005
field min 9.4416e-006
field max 0.000100801504
statistic Basic.rack[2].node[1].app 	hops
field count 39921
field mean 5.4985596553193
field stddev 0.50000418786274
field sum 219508
field sqrsum 1216958
field min 5
field max 6
statistic Basic.rack[2].node[2].app 	throughput
field count 39664
field mean 19832.5
field stddev 11450.154875226
field sum 786636280
field sqrsum 20801023152040
field min 1
field max 39664
statistic Basic.rack[2].node[2].app 	"End-to-End Delay"
field count 39664
field mean 1.8013226987775e-005
field stddev 8.5584680964072e-006
field sum 0.71447663524312
field sqrsum 1.577524048862e-005
field min 9.4416e-006
field max 8.8561962e-005
statistic Basic.rack[2].node[2].app 	hops
field count 39664
field mean 5.5001764824526
field stddev 0.50000627191747
field sum 218159
field sqrsum 1209829
field min 5
field max 6
statistic Basic.rack[2].node[3].app 	throughput
field count 40300
field mean 20150.5
field stddev 11633.752260843
field sum 812065150
field sqrsum 21817754385050
field min 1
field max 40300
statistic Basic.rack[2].node[3].app 	"End-to-End Delay"
field count 40300
field mean 1.8032895635263e-005
field stddev 8.5155924166214e-006
field sum 0.72672569410112
field sqrsum 1.6027263244378e-005
field min 9.4416e-006
field max 0.000109525655
statistic Basic.rack[2].node[3].app 	hops
field count 40300
field mean 5.5009181141439
field stddev 0.50000536064465
field sum 221687
field sqrsum 1229557
field min 5
field max 6
statistic Basic.rack[2].node[4].app 	throughput
field count 39988
field mean 19994.5
field stddev 11543.685618842
field sum 799540066
field sqrsum 21314938619494
field min 1
field max 39988
statistic Basic.rack[2].node[4].app 	"End-to-End Delay"
field count 39988
field mean 1.7955844401123e-005
field stddev 8.448347599955e-006
field sum 0.71801830591211
field sqrsum 1.5746680195399e-005
field min 9.4416e-006
field max 9.5479743e-005
statistic Basic.rack[2].node[4].app 	hops
field count 39988
field mean 5.4982244673402
field stddev 0.50000309942724
field sum 219863
field sqrsum 1218853
field min 5
field max 6
statistic Basic.rack[2].node[5].app 	throughput
field count 40072
field mean 20036.5
field stddev 11567.93433015
field sum 802902628
field sqrsum 21449543707020
field min 1
field max 40072
statistic Basic.rack[2].node[5].app 	"End-to-End Delay"
field count 40072
field mean 1.8034332666279e-005
field stddev 8.5856982408029e-006
field sum 0.72267177860312
field sqrsum 1.5986705544359e-005
field min 9.4416e-006
field max 0.000104998453
statistic Basic.rack[2].node[5].app 	hops
field count 40072
field mean 5.5017718107407
field stddev 0.50000309952466
field sum 220467
field sqrsum 1222977
field min 5
field max 6
statistic Basic.rack[2].node[6].app 	throughput
field count 39880
field mean 19940.5
field stddev 11512.508704304
field sum 795227140
field sqrsum 21142703971180
field min 1
field max 39880
statistic Basic.rack[2].node[6].app 	"End-to-End Delay"
field count 39880
field mean 1.7944406546994e-005
field stddev 8.3750998485367e-006
field sum 0.71562293309411
field sqrsum 1.5638633526717e-005
field min 9.4416e-006
field max 9.172527e-005
statistic Basic.rack[2].node[6].app 	hops
field count 39880
field mean 5.4987462387161
field stddev 0.50000469698478
field sum 219290
field sqrsum 1215790
field min 5
field max 6
statistic Basic.rack[2].node[7].app 	throughput
field count 39872
field mean 19936.5
field stddev 11510.199303227
field sum 794908128
field sqrsum 21129982889120
field min 1
field max 39872
statistic Basic.rack[2].node[7].app 	"End-to-End Delay"
field count 39872
field mean 1.8020371854613e-005
field stddev 8.5063291880067e-006
field sum 0.71850826658711
field sqrsum 1.5832757459625e-005
field min 9.4416e-006
field max 0.000104716596
statistic Basic.rack[2].node[7].app 	hops
field count 39872
field mean 5.5023324638844
field stddev 0.50000082969655
field sum 219389
field sqrsum 1217119
field min 5
field max 6
statistic Basic.rack[2].node[8].app 	throughput
field count 39857
field mean 19929
field stddev 11505.869176207
field sum 794310153
field sqrsum 21106144615465
field min 1
field max 39857
statistic Basic.rack[2].node[8].app 	"End-to-End Delay"
field count 39857
field mean 1.8032329282513e-005
field stddev 8.5548241956217e-006
field sum 0.71871454821311
field sqrsum 1.587695943178e-005
field min 9.4416e-006
field max 0.00010585734
statistic Basic.rack[2].node[8].app 	hops
field count 39857
field mean 5.5001129036305
field stddev 0.50000625979456
field sum 219218
field sqrsum 1215688
field min 5
field max 6
statistic Basic.rack[2].node[9].app 	throughput
field count 39965
field mean 19983
field stddev 11537.046090746
field sum 798620595
field sqrsum 21278180926315
field min 1
field max 39965
statistic Basic.rack[2].node[9].app 	"End-to-End Delay"
field count 39965
field mean 1.8024206743954e-005
field stddev 8.5379457183964e-006
field sum 0.72033742252211
field sqrsum 1.5896747037941e-005
field min 9.4416e-006
field max 0.000101097953
statistic Basic.rack[2].node[9].app 	hops
field count 39965
field mean 5.4986112848743
field stddev 0.50000432703338
field sum 219752
field sqrsum 1218322
field min 5
field max 6
statistic Basic.rack[2].eps.queue[0] 	dropsum
field count 0
field mean nan
field stddev nan
field sum 0
field sqrsum 0
field min nan
field max nan
statistic Basic.rack[2].eps.queue[1] 	dropsum
field count 0
field mean nan
field stddev nan
field sum 0
field sqrsum 0
field min nan
field max nan
statistic Basic.rack[2].eps.queue[2] 	dropsum
field count 0
field mean nan
field stddev nan
field sum 0
field sqrsum 0
field min nan
field max nan
statistic Basic.rack[2].eps.queue[3] 	dropsum
field count 0
field mean nan
field stddev nan
field sum 0
field sqrsum 0
field min nan
field max nan
statistic Basic.rack[3].node[0].app 	throughput
field count 39736
field mean 19868.5
field stddev 11470.939484919
field sum 789494716
field sqrsum 20914504521556
field min 1
field max 39736
statistic Basic.rack[3].node[0].app 	"End-to-End Delay"
field count 39736
field mean 2.2613938451377e-005
field stddev 1.0348402666113e-005
field sum 0.89858745830393
field sqrsum 2.4575800283864e-005
field min 8.992e-006
field max 0.000121963318
statistic Basic.rack[3].node[0].app 	hops
field count 39736
field mean 4.4975840547614
field stddev 1.1161079445938
field sum 178716
field sqrsum 853288
field min 3
field max 6
statistic Basic.rack[3].node[1].app 	throughput
field count 40033
field mean 20017
field stddev 11556.6759999
field sum 801340561
field sqrsum 21386978232529
field min 1
field max 40033
statistic Basic.rack[3].node[1].app 	"End-to-End Delay"
field count 40033
field mean 2.2637323657956e-005
field stddev 1.030235457509e-005
field sum 0.90623997799894
field sqrsum 2.4763784517689e-005
field min 8.992e-006
field max 0.000103425002
statistic Basic.rack[3].node[1].app 	hops
field count 40033
field mean 4.5040341718083
field stddev 1.1146282094022
field sum 180310
field sqrsum 861858
field min 3
field max 6
statistic Basic.rack[3].node[2].app 	throughput
field count 40122
field mean 20061.5
field stddev 11582.368086881
field sum 804907503
field sqrsum 21529934192745
field min 1
field max 40122
statistic Basic.rack[3].node[2].app 	"End-to-End Delay"
field count 40122
field mean 2.262369924039e-005
field stddev 1.024809306e-005
field sum 0.90770806092293
field sqrsum 2.474935845583e-005
field min 8.992e-006
field max 0.000100755174
statistic Basic.rack[3].node[2].app 	hops
field count 40122
field mean 4.5073525746473
field stddev 1.1212738640272
field sum 180844
field sqrsum 865570
field min 3
field max 6
statistic Basic.rack[3].node[3].app 	throughput
field count 40043
field mean 20022
field stddev 11559.562751246
field sum 801740946
field sqrsum 21403009047434
field min 1
field max 40043
statistic Basic.rack[3].node[3].app 	"End-to-End Delay"
field count 40043
field mean 2.2476371004793e-005
field stddev 1.0189270951251e-005
field sum 0.90002132414494
field sqrsum 2.4386423386613e-005
field min 8.992e-006
field max 0.000113045772
statistic Basic.rack[3].node[3].app 	hops
field count 40043
field mean 4.4881752116475
field stddev 1.1168567663669
field sum 179720
field sqrsum 856562
field min 3
field max 6
statistic Basic.rack[3].node[4].app 	throughput
field count 40250
field mean 20125.5
field stddev 11619.318504112
field sum 810051375
field sqrsum 21736648579625
field min 1
field max 40250
statistic Basic.rack[3].node[4].app 	"End-to-End Delay"
field count 40250
field mean 2.2511698129539e-005
field stddev 1.0195357325024e-005
field sum 0.90609584971393
field sqrsum 2.458145106702e-005
field min 8.992e-006
field max 0.000102196979
statistic Basic.rack[3].node[4].app 	hops
field count 40250
field mean 4.5022608695652
field stddev 1.1213296415393
field sum 181216
field sqrsum 866490
field min 3
field max 6
statistic Basic.rack[3].node[5].app 	throughput
field count 40000
field mean 20000.5
field stddev 11547.149720458
field sum 800020000
field sqrsum 21334133340000
field min 1
field max 40000
statistic Basic.rack[3].node[5].app 	"End-to-End Delay"
field count 40000
field mean 2.2454950498924e-005
field stddev 1.0272684930862e-005
field sum 0.89819801995694
field sqrsum 2.4390008775859e-005
field min 8.992e-006
field max 0.000117102244
statistic Basic.rack[3].node[5].app 	hops
field count 40000
field mean 4.5016
field stddev 1.1210391867466
field sum 180064
field sqrsum 860844
field min 3
field max 6
statistic Basic.rack[3].node[6].app 	throughput
field count 40225
field mean 20113
field stddev 11612.101625747
field sum 809045425
field sqrsum 21696171162225
field min 1
field max 40225
statistic Basic.rack[3].node[6].app 	"End-to-End Delay"
field count 40225
field mean 2.2642303685393e-005
field stddev 1.0379535190289e-005
field sum 0.91078666574493
field sqrsum 2.4955830893232e-005
field min 8.992e-006
field max 0.000125777679
statistic Basic.rack[3].node[6].app 	hops
field count 40225
field mean 4.4939962709758
field stddev 1.1174645992401
field sum 180771
field sqrsum 862613
field min 3
field max 6
statistic Basic.rack[3].node[7].app 	throughput
field count 40073
field mean 20037
field stddev 11568.223005285
field sum 802942701
field sqrsum 21451149552349
field min 1
field max 40073
statistic Basic.rack[3].node[7].app 	"End-to-End Delay"
field count 40073
field mean 2.2563402737328e-005
field stddev 1.0270559792097e-005
field sum 0.90418323789293
field sqrsum 2.4628421359329e-005
field min 8.992e-006
field max 0.000106948613
statistic Basic.rack[3].node[7].app 	hops
field count 40073
field mean 4.500212112894
field stddev 1.1214910917355
field sum 180337
field sqrsum 861955
field min 3
field max 6
statistic Basic.rack[3].node[8].app 	throughput
field count 39876
field mean 19938.5
field stddev 11511.354003765
field sum 795067626
field sqrsum 21136342792126
field min 1
field max 39876
statistic Basic.rack[3].node[8].app 	"End-to-End Delay"
field count 39876
field mean 2.2639339035483e-005
field stddev 1.0251039820673e-005
field sum 0.90276628337892
field sqrsum 2.4628249178244e-005
field min 8.992e-006
field max 9.5444994e-005
statistic Basic.rack[3].node[8].app 	hops
field count 39876
field mean 4.5033102618116
field stddev 1.1149208954094
field sum 179574
field sqrsum 858244
field min 3
field max 6
statistic Basic.rack[3].node[9].app 	throughput
field count 40315
field mean 20158
field stddev 11638.082387862
field sum 812669770
field sqrsum 21842125408290
field min 1
field max 40315
statistic Basic.rack[3].node[9].app 	"End-to-End Delay"
field count 40315
field mean 2.2670550130273e-005
field stddev 1.0359255425594e-005
field sum 0.91396322850194
field sqrsum 2.50463127582e-005
field min 8.992e-006
field max 0.000121957497
statistic Basic.rack[3].node[9].app 	hops
field count 40315
field mean 4.4997891603621
field stddev 1.1173265498668
field sum 181409
field sqrsum 866631
field min 3
field max 6
statistic Basic.rack[3].eps.queue[0] 	dropsum
field count 0
field mean nan
field stddev nan
field sum 0
field sqrsum 0
field min nan
field max nan
statistic Basic.rack[3].eps.queue[1] 	dropsum
field count 0
field mean nan
field stddev nan
field sum 0
field sqrsum 0
field min nan
field max nan
statistic Basic.rack[3].eps.queue[2] 	dropsum
field count 0
field mean nan
field stddev nan
field sum 0
field sqrsum 0
field min nan
field max nan
statistic Basic.rack[3].eps.queue[3] 	dropsum
field count 0
field mean nan
field stddev nan
field sum 0
field sqrsum 0
field min nan
field max nan
statistic Basic.rack[4].node[0].app 	throughput
field count 40083
field mean 20042
field stddev 11571.109756631
field sum 803343486
field sqrsum 21467212414054
field min 1
field max 40083
statistic Basic.rack[4].node[0].app 	"End-to-End Delay"
field count 40083
field mean 2.2624399123519e-005
field stddev 1.067188277699e-005
field sum 0.90685379006799
field sqrsum 2.5081924278131e-005
field min 9.4416e-006
field max 0.000134513874
statistic Basic.rack[4].node[0].app 	hops
field count 40083
field mean 5.0018711174313
field stddev 0.70865506281886
field sum 200490
field sqrsum 1022954
field min 4
field max 6
statistic Basic.rack[4].node[1].app 	throughput
field count 40371
field mean 20186
field stddev 11654.248195401
field sum 814929006
field sqrsum 21933270910486
field min 1
field max 40371
statistic Basic.rack[4].node[1].app 	"End-to-End Delay"
field count 40371
field mean 2.2594167381263e-005
field stddev 1.0682962667412e-005
field sum 0.91214913134898
field sqrsum 2.5216504310306e-005
field min 9.4416e-006
field max 0.000116546863
statistic Basic.rack[4].node[1].app 	hops
field count 40371
field mean 5.0024274850759
field stddev 0.7076803981052
field sum 201953
field sqrsum 1030473
field min 4
field max 6
statistic Basic.rack[4].node[2].app 	throughput
field count 39837
field mean 19919
field stddev 11500.095673515
field sum 793513203
field sqrsum 21074388149675
field min 1
field max 39837
statistic Basic.rack[4].node[2].app 	"End-to-End Delay"
field count 39837
field mean 2.2596883679142e-005
field stddev 1.0642600503998e-005
field sum 0.90019205512599
field sqrsum 2.4853557527018e-005
field min 9.4416e-006
field max 0.000107077181
statistic Basic.rack[4].node[2].app 	hops
field count 39837
field mean 4.9972136456058
field stddev 0.70498580717534
field sum 199074
field sqrsum 1014614
field min 4
field max 6
statistic Basic.rack[4].node[3].app 	throughput
field count 40077
field mean 20039
field stddev 11569.377705823
field sum 803103003
field sqrsum 21457573735155
field min 1
field max 40077
statistic Basic.rack[4].node[3].app 	"End-to-End Delay"
field count 40077
field mean 2.2512473608279e-005
field stddev 1.0577132240152e-005
field sum 0.902232404799
field sqrsum 2.4795014813807e-005
field min 9.4416e-006
field max 0.00010414393
statistic Basic.rack[4].node[3].app 	hops
field count 40077
field mean 5.0019213014946
field stddev 0.70408054624807
field sum 200462
field sqrsum 1022562
field min 4
field max 6
statistic Basic.rack[4].node[4].app 	throughput
field count 40177
field mean 20089
field stddev 11598.245219285
field sum 807115753
field sqrsum 21618595444105
field min 1
field max 40177
statistic Basic.rack[4].node[4].app 	"End-to-End Delay"
field count 40177
field mean 2.2659232605197e-005
field stddev 1.0667580049043e-005
field sum 0.910379988379
field sqrsum 2.5200430798388e-005
field min 9.4416e-006
field max 0.00010069348
statistic Basic.rack[4].node[4].app 	hops
field count 40177
field mean 5.0005475769719
field stddev 0.70629649438853
field sum 200907
field sqrsum 1024687
field min 4
field max 6
statistic Basic.rack[4].node[5].app 	throughput
field count 39811
field mean 19906
field stddev 11492.590120015
field sum 792477766
field sqrsum 21033152387406
field min 1
field max 39811
statistic Basic.rack[4].node[5].app 	"End-to-End Delay"
field count 39811
field mean 2.2551810919645e-005
field stddev 1.0580904214046e-005
field sum 0.897810144522
field sqrsum 2.4704194429014e-005
field min 9.4416e-006
field max 9.8122397e-005
statistic Basic.rack[4].node[5].app 	hops
field count 39811
field mean 4.9968099269046
field stddev 0.70713510859773
field sum 198928
field sqrsum 1013912
field min 4
field max 6
statistic Basic.rack[4].node[6].app 	throughput
field count 40016
field mean 20008.5
field stddev 11551.768522612
field sum 800660136
field sqrsum 21359744221496
field min 1
field max 40016
statistic Basic.rack[4].node[6].app 	"End-to-End Delay"
field count 40016
field mean 2.2539078659586e-005
field stddev 1.0603043756811e-005
field sum 0.901923771642
field sqrsum 2.4827198678397e-005
field min 9.4416e-006
field max 0.00011296762
statistic Basic.rack[4].node[6].app 	hops
field count 40016
field mean 5.0057726909236
field stddev 0.70746305466771
field sum 200311
field sqrsum 1022739
field min 4
field max 6
statistic Basic.rack[4].node[7].app 	throughput
field count 39843
field mean 19922
field stddev 11501.827724323
field sum 793752246
field sqrsum 21083911742334
field min 1
field max 39843
statistic Basic.rack[4].node[7].app 	"End-to-End Delay"
field count 39843
field mean 2.2575184931983e-005
field stddev 1.0494133144754e-005
field sum 0.899463093245
field sqrsum 2.469321884868e-005
field min 9.4416e-006
field max 0.000108529553
statistic Basic.rack[4].node[7].app 	hops
field count 39843
field mean 4.9992721431619
field stddev 0.70852480658046
field sum 199186
field sqrsum 1015786
field min 4
field max 6
statistic Basic.rack[4].node[8].app 	throughput
field count 39963
field mean 19982
field stddev 11536.468740477
field sum 798540666
field sqrsum 21274986603794
field min 1
field max 39963
statistic Basic.rack[4].node[8].app 	"End-to-End Delay"
field count 39963
field mean 2.2530200731376e-005
field stddev 1.0561396317293e-005
field sum 0.900374411828
field sqrsum 2.4743101281214e-005
field min 9.4416e-006
field max 0.000104917268
statistic Basic.rack[4].node[8].app 	hops
field count 39963
field mean 4.9993994444861
field stddev 0.70538807289563
field sum 199791
field sqrsum 1018719
field min 4
field max 6
statistic Basic.rack[4].node[9].app 	throughput
field count 39949
field mean 19975
field stddev 11532.427288592
field sum 797981275
field sqrsum 21252635297075
field min 1
field max 39949
statistic Basic.rack[4].node[9].app 	"End-to-End Delay"
field count 39949
field mean 2.24893964514e-005
field stddev 1.0577954190127e-005
field sum 0.89842889883699
field sqrsum 2.4675029841305e-005
field min 9.4416e-006
field max 0.000108610108
statistic Basic.rack[4].node[9].app 	hops
field count 39949
field mean 5.0008010213022
field stddev 0.70664595962114
field sum 199777
field sqrsum 1018993
field min 4
field max 6
statistic Basic.rack[4].eps.queue[0] 	dropsum
field count 0
field mean nan
field stddev nan
field sum 0
field sqrsum 0
field min nan
field max nan
statistic Basic.rack[4].eps.queue[1] 	dropsum
field count 0
field mean nan
field stddev nan
field sum 0
field sqrsum 0
field min nan
field max nan
statistic Basic.rack[4].eps.queue[2] 	dropsum
field count 0
field mean nan
field stddev nan
field sum 0
field sqrsum 0
field min nan
field max nan
statistic Basic.rack[4].eps.queue[3] 	dropsum
field count 0
field mean nan
field stddev nan
field sum 0
field sqrsum 0
field min nan
field max nan
statistic Basic.rack[5].node[0].app 	throughput
field count 40036
field mean 20018.5
field stddev 11557.542025304
field sum 801460666
field sqrsum 21391786636206
field min 1
field max 40036
statistic Basic.rack[5].node[0].app 	"End-to-End Delay"
field count 40036
field mean 1.6349593939033e-005
field stddev 1.2468464935252e-005
field sum 0.65457234294313
field sqrsum 1.6925937916131e-005
field min 8.496e-007
field max 8.8067929e-005
statistic Basic.rack[5].node[0].app 	hops
field count 40036
field mean 5.0033469877111
field stddev 0.70827243626848
field sum 200314
field sqrsum 1022324
field min 4
field max 6
statistic Basic.rack[5].node[1].app 	throughput
field count 40080
field mean 20040.5
field stddev 11570.243731227
field sum 803223240
field sqrsum 21462392713880
field min 1
field max 40080
statistic Basic.rack[5].node[1].app 	"End-to-End Delay"
field count 40080
field mean 1.6228718350502e-005
field stddev 1.2367906237744e-005
field sum 0.65044703148813
field sqrsum 1.6686610107438e-005
field min 8.496e-007
field max 8.5359966e-005
statistic Basic.rack[5].node[1].app 	hops
field count 40080
field mean 4.9975798403194
field stddev 0.70631709276895
field sum 200303
field sqrsum 1021025
field min 4
field max 6
statistic Basic.rack[5].node[2].app 	throughput
field count 40261
field mean 20131
field stddev 11622.493930593
field sum 810494191
field sqrsum 21754474580631
field min 1
field max 40261
statistic Basic.rack[5].node[2].app 	"End-to-End Delay"
field count 40261
field mean 1.634110901195e-005
field stddev 1.2400661699205e-005
field sum 0.65790938993012
field sqrsum 1.694200735071e-005
field min 8.496e-007
field max 9.2914239e-005
statistic Basic.rack[5].node[2].app 	hops
field count 40261
field mean 5.0026079829115
field stddev 0.70511448869722
field sum 201410
field sqrsum 1027592
field min 4
field max 6
statistic Basic.rack[5].node[3].app 	throughput
field count 40153
field mean 20077
field stddev 11591.317016054
field sum 806151781
field sqrsum 21579877025589
field min 1
field max 40153
statistic Basic.rack[5].node[3].app 	"End-to-End Delay"
field count 40153
field mean 1.6306112550248e-005
field stddev 1.2410175473104e-005
field sum 0.65473933723012
field sqrsum 1.686016142808e-005
field min 8.496e-007
field max 8.9235432e-005
statistic Basic.rack[5].node[3].app 	hops
field count 40153
field mean 4.9997011431275
field stddev 0.70382349619101
field sum 200753
field sqrsum 1023595
field min 4
field max 6
statistic Basic.rack[5].node[4].app 	throughput
field count 39891
field mean 19946
field stddev 11515.684130784
field sum 795665886
field sqrsum 21160203794246
field min 1
field max 39891
statistic Basic.rack[5].node[4].app 	"End-to-End Delay"
field count 39891
field mean 1.6413064630421e-005
field stddev 1.241467411538e-005
field sum 0.65473356117212
field sqrsum 1.6894195936194e-005
field min 8.496e-007
field max 8.7663588e-005
statistic Basic.rack[5].node[4].app 	hops
field count 39891
field mean 5.0053646185856
field stddev 0.70547143573914
field sum 199669
field sqrsum 1019269
field min 4
field max 6
statistic Basic.rack[5].node[5].app 	throughput
field count 39791
field mean 19896
field stddev 11486.816617323
field sum 791681736
field sqrsum 21001469198696
field min 1
field max 39791
statistic Basic.rack[5].node[5].app 	"End-to-End Delay"
field count 39791
field mean 1.6288352221611e-005
field stddev 1.2475111601834e-005
field sum 0.64812982325012
field sqrsum 1.6749421259566e-005
field min 8.496e-007
field max 9.1020978e-005
statistic Basic.rack[5].node[5].app 	hops
field count 39791
field mean 4.9982659395341
field stddev 0.70845396505621
field sum 198886
field sqrsum 1014056
field min 4
field max 6
statistic Basic.rack[5].node[6].app 	throughput
field count 40223
field mean 20112
field stddev 11611.524275477
field sum 808964976
field sqrsum 21692935141424
field min 1
field max 40223
statistic Basic.rack[5].node[6].app 	"End-to-End Delay"
field count 40223
field mean 1.644034649201e-005
field stddev 1.2450042721711e-005
field sum 0.66128005694813
field sqrsum 1.7106226606538e-005
field min 8.496e-007
field max 9.1311761e-005
statistic Basic.rack[5].node[6].app 	hops
field count 40223
field mean 5.0041269920195
field stddev 0.70422330189793
field sum 201281
field sqrsum 1027183
field min 4
field max 6
statistic Basic.rack[5].node[7].app 	throughput
field count 39955
field mean 19978
field stddev 11534.1593394
field sum 798220990
field sqrsum 21262212510630
field min 1
field max 39955
statistic Basic.rack[5].node[7].app 	"End-to-End Delay"
field count 39955
field mean 1.6225210587214e-005
field stddev 1.2505754699345e-005
field sum 0.64827828901212
field sqrsum 1.676701366292e-005
field min 8.496e-007
field max 9.4242379e-005
statistic Basic.rack[5].node[7].app 	hops
field count 39955
field mean 4.994669002628
field stddev 0.70825382416218
field sum 199562
field sqrsum 1016788
field min 4
field max 6
statistic Basic.rack[5].node[8].app 	throughput
field count 39982
field mean 19991.5
field stddev 11541.953568035
field sum 799300153
field sqrsum 21305345578215
field min 1
field max 39982
statistic Basic.rack[5].node[8].app 	"End-to-End Delay"
field count 39982
field mean 1.6269616046274e-005
field stddev 1.2494938723149e-005
field sum 0.65049178876213
field sqrsum 1.6825225045843e-005
field min 8.496e-007
field max 7.8471948e-005
statistic Basic.rack[5].node[8].app 	hops
field count 39982
field mean 4.9957730978941
field stddev 0.7077747454215
field sum 199741
field sqrsum 1017889
field min 4
field max 6
statistic Basic.rack[5].node[9].app 	throughput
field count 39635
field mean 19818
field stddev 11441.783296322
field sum 785486430
field sqrsum 20755431597510
field min 1
field max 39635
statistic Basic.rack[5].node[9].app 	"End-to-End Delay"
field count 39635
field mean 1.6404544054904e-005
field stddev 1.2442421987473e-005
field sum 0.65019410361612
field sqrsum 1.6802030539025e-005
field min 8.496e-007
field max 8.4494681e-005
statistic Basic.rack[5].node[9].app 	hops
field count 39635
field mean 5.0039611454523
field stddev 0.70290844861287
field sum 198332
field sqrsum 1012028
field min 4
field max 6
statistic Basic.rack[5].eps.queue[0] 	dropsum
field count 0
field mean nan
field stddev nan
field sum 0
field sqrsum 0
field min nan
field max nan
statistic Basic.rack[5].eps.queue[1] 	dropsum
field count 0
field mean nan
field stddev nan
field sum 0
field sqrsum 0
field min nan
field max nan
statistic Basic.rack[5].eps.queue[2] 	dropsum
field count 0
field mean nan
field stddev nan
field sum 0
field sqrsum 0
field min nan
field max nan
statistic Basic.rack[5].eps.queue[3] 	dropsum
field count 0
field mean nan
field stddev nan
field sum 0
field sqrsum 0
field min nan
field max nan
statistic Basic.rack[6].node[0].app 	throughput
field count 40587
field mean 20294
field stddev 11716.602024478
field sum 823672578
field sqrsum 22287207173050
field min 1
field max 40587
statistic Basic.rack[6].node[0].app 	"End-to-End Delay"
field count 40587
field mean 1.9250130412278e-005
field stddev 9.9832695401189e-006
field sum 0.78130504304312
field sqrsum 1.9085254881813e-005
field min 9.4416e-006
field max 0.000106976044
statistic Basic.rack[6].node[0].app 	hops
field count 40587
field mean 5.4973760070959
field stddev 0.49999927425059
field sum 223122
field sqrsum 1236732
field min 5
field max 6
statistic Basic.rack[6].node[1].app 	throughput
field count 40089
field mean 20045
field stddev 11572.841807439
field sum 803584005
field sqrsum 21476853978965
field min 1
field max 40089
statistic Basic.rack[6].node[1].app 	"End-to-End Delay"
field count 40089
field mean 1.9249820797853e-005
field stddev 9.9378651949663e-006
field sum 0.77170606596512
field sqrsum 1.8814341046265e-005
field min 9.4416e-006
field max 9.8607841e-005
statistic Basic.rack[6].node[1].app 	hops
field count 40089
field mean 5.5000124722492
field stddev 0.50000623608573
field sum 220490
field sqrsum 1222720
field min 5
field max 6
statistic Basic.rack[6].node[2].app 	throughput
field count 40015
field mean 20008
field stddev 11551.479847477
field sum 800620120
field sqrsum 21358142941240
field min 1
field max 40015
statistic Basic.rack[6].node[2].app 	"End-to-End Delay"
field count 40015
field mean 1.9264489283397e-005
field stddev 9.9708040663273e-006
field sum 0.77086853867512
field sqrsum 1.882845788845e-005
field min 9.4416e-006
field max 9.7115477e-005
statistic Basic.rack[6].node[2].app 	hops
field count 40015
field mean 5.5017618393103
field stddev 0.50000314364806
field sum 220153
field sqrsum 1221233
field min 5
field max 6
statistic Basic.rack[6].node[3].app 	throughput
field count 39649
field mean 19825
field stddev 11445.824748207
field sum 786041425
field sqrsum 20777432987025
field min 1
field max 39649
statistic Basic.rack[6].node[3].app 	"End-to-End Delay"
field count 39649
field mean 1.9280477428513e-005
field stddev 1.0048095169973e-005
field sum 0.76445164956312
field sqrsum 1.8742022032161e-005
field min 9.4416e-006
field max 0.000110163522
statistic Basic.rack[6].node[3].app 	hops
field count 39649
field mean 5.4997099548538
field stddev 0.50000622132128
field sum 218058
field sqrsum 1209168
field min 5
field max 6
statistic Basic.rack[6].node[4].app 	throughput
field count 40019
field mean 20010
field stddev 11552.634548015
field sum 800780190
field sqrsum 21364548542470
field min 1
field max 40019
statistic Basic.rack[6].node[4].app 	"End-to-End Delay"
field count 40019
field mean 1.9243539266076e-005
field stddev 9.9265594810173e-006
field sum 0.77010719788911
field sqrsum 1.8762825085371e-005
field min 9.4416e-006
field max 0.000101889359
statistic Basic.rack[6].node[4].app 	hops
field count 40019
field mean 5.4998125890202
field stddev 0.50000621202642
field sum 220097
field sqrsum 1220497
field min 5
field max 6
statistic Basic.rack[6].node[5].app 	throughput
field count 39989
field mean 19995
field stddev 11543.974293977
field sum 799580055
field sqrsum 21316537739615
field min 1
field max 39989
statistic Basic.rack[6].node[5].app 	"End-to-End Delay"
field count 39989
field mean 1.9375691963218e-005
field stddev 1.0061598799651e-005
field sum 0.77481454591712
field sqrsum 1.9060783957271e-005
field min 9.4416e-006
field max 9.6536689e-005
statistic Basic.rack[6].node[5].app 	hops
field count 39989
field mean 5.5032383905574
field stddev 0.49999576442196
field sum 220069
field sqrsum 1221089
field min 5
field max 6
statistic Basic.rack[6].node[6].app 	throughput
field count 39715
field mean 19858
field stddev 11464.877307092
field sum 788660470
field sqrsum 20881363264190
field min 1
field max 39715
statistic Basic.rack[6].node[6].app 	"End-to-End Delay"
field count 39715
field mean 1.9218664850085e-005
field stddev 9.9678064122337e-006
field sum 0.76326927452111
field sqrsum 1.8614886815163e-005
field min 9.4416e-006
field max 9.8273191e-005
statistic Basic.rack[6].node[6].app 	hops
field count 39715
field mean 5.4993579252172
field stddev 0.5000058827043
field sum 218407
field sqrsum 1211027
field min 5
field max 6
statistic Basic.rack[6].node[7].app 	throughput
field count 40150
field mean 20075.5
field stddev 11590.45099065
field sum 806031325
field sqrsum 21575040476275
field min 1
field max 40150
statistic Basic.rack[6].node[7].app 	"End-to-End Delay"
field count 40150
field mean 1.9262754429691e-005
field stddev 9.962115209382e-006
field sum 0.77339959035211
field sqrsum 1.8882343279954e-005
field min 9.4416e-006
field max 0.00010641697
statistic Basic.rack[6].node[7].app 	hops
field count 40150
field mean 5.50099626401
field stddev 0.50000523421105
field sum 220865
field sqrsum 1225015
field min 5
field max 6
statistic Basic.rack[6].node[8].app 	throughput
field count 40157
field mean 20079
field stddev 11592.471716593
field sum 806312403
field sqrsum 21586326882315
field min 1
field max 40157
statistic Basic.rack[6].node[8].app 	"End-to-End Delay"
field count 40157
field mean 1.9290928206941e-005
field stddev 1.0051385073819e-005
field sum 0.77466580400612
field sqrsum 1.9000996818879e-005
field min 9.4416e-006
field max 0.000101647392
statistic Basic.rack[6].node[8].app 	hops
field count 40157
field mean 5.5000871579052
field stddev 0.50000621808434
field sum 220867
field sqrsum 1224827
field min 5
field max 6
statistic Basic.rack[6].node[9].app 	throughput
field count 40123
field mean 20062
field stddev 11582.656762016
field sum 804947626
field sqrsum 21531544047874
field min 1
field max 40123
statistic Basic.rack[6].node[9].app 	"End-to-End Delay"
field count 40123
field mean 1.9316916082001e-005
field stddev 1.008857298035e-005
field sum 0.77505262395813
field sqrsum 1.9055215762511e-005
field min 9.4416e-006
field max 0.000117504952
statistic Basic.rack[6].node[9].app 	hops
field count 40123
field mean 5.5016574034843
field stddev 0.50000348392855
field sum 220743
field sqrsum 1224483
field min 5
field max 6
statistic Basic.rack[6].eps.queue[0] 	dropsum
field count 0
field mean nan
field stddev nan
field sum 0
field sqrsum 0
field min nan
field max nan
statistic Basic.rack[6].eps.queue[1] 	dropsum
field count 0
field mean nan
field stddev nan
field sum 0
field sqrsum 0
field min nan
field max nan
statistic Basic.rack[6].eps.queue[2] 	dropsum
field count 0
field mean nan
field stddev nan
field sum 0
field sqrsum 0
field min nan
field max nan
statistic Basic.rack[6].eps.queue[3] 	dropsum
field count 0
field mean nan
field stddev nan
field sum 0
field sqrsum 0
field min nan
field max nan
statistic Basic.rack[7].node[0].app 	throughput
field count 40490
field mean 20245.5
field stddev 11688.60053642
field sum 819740295
field sqrsum 22127796276465
field min 1
field max 40490
statistic Basic.rack[7].node[0].app 	"End-to-End Delay"
field count 40490
field mean 1.9424182598224e-005
field stddev 1.0160818739874e-005
field sum 0.78648515340207
field sqrsum 1.9457006183177e-005
field min 8.992e-006
field max 9.6862452e-005
statistic Basic.rack[7].node[0].app 	hops
field count 40490
field mean 4.2428253889849
field stddev 0.83272820361485
field sum 171792
field sqrsum 756960
field min 3
field max 5
statistic Basic.rack[7].node[1].app 	throughput
field count 40063
field mean 20032
field stddev 11565.336253939
field sum 802542016
field sqrsum 21435094705344
field min 1
field max 40063
statistic Basic.rack[7].node[1].app 	"End-to-End Delay"
field count 40063
field mean 1.9531415316953e-005
field stddev 1.0264334067879e-005
field sum 0.78248709184307
field sqrsum 1.9503874631561e-005
field min 8.992e-006
field max 8.6526541e-005
statistic Basic.rack[7].node[1].app 	hops
field count 40063
field mean 4.2554726306068
field stddev 0.82945135892974
field sum 170487
field sqrsum 753065
field min 3
field max 5
statistic Basic.rack[7].node[2].app 	throughput
field count 39841
field mean 19921
field stddev 11501.250374054
field sum 793672561
field sqrsum 21080736892721
field min 1
field max 39841
statistic Basic.rack[7].node[2].app 	"End-to-End Delay"
field count 39841
field mean 1.9453558473083e-005
field stddev 1.0193740694614e-005
field sum 0.77504922312608
field sqrsum 1.9217333379665e-005
field min 8.992e-006
field max 9.7138882e-005
statistic Basic.rack[7].node[2].app 	hops
field count 39841
field mean 4.2480861424161
field stddev 0.83012308216018
field sum 169248
field sqrsum 746434
field min 3
field max 5
statistic Basic.rack[7].node[3].app 	throughput
field count 40060
field mean 20030.5
field stddev 11564.470228535
field sum 802421830
field sqrsum 21430279813810
field min 1
field max 40060
statistic Basic.rack[7].node[3].app 	"End-to-End Delay"
field count 40060
field mean 1.9476320062458e-005
field stddev 1.0198339910743e-005
field sum 0.78022138170207
field sqrsum 1.9362223189084e-005
field min 8.992e-006
field max 8.6122828e-005
statistic Basic.rack[7].node[3].app 	hops
field count 40060
field mean 4.2458562156765
field stddev 0.82950234715325
field sum 170089
field sqrsum 749737
field min 3
field max 5
statistic Basic.rack[7].node[4].app 	throughput
field count 39829
field mean 19915
field stddev 11497.786272438
field sum 793194535
field sqrsum 21061694487855
field min 1
field max 39829
statistic Basic.rack[7].node[4].app 	"End-to-End Delay"
field count 39829
field mean 1.9501040577646e-005
field stddev 1.020381200281e-005
field sum 0.77670694516708
field sqrsum 1.9293396572136e-005
field min 8.992e-006
field max 9.9578718e-005
statistic Basic.rack[7].node[4].app 	hops
field count 39829
field mean 4.2475583117829
field stddev 0.82863102916209
field sum 169176
field sqrsum 745932
field min 3
field max 5
statistic Basic.rack[7].node[5].app 	throughput
field count 40081
field mean 20041
field stddev 11570.532406362
field sum 803263321
field sqrsum 21463999200441
field min 1
field max 40081
statistic Basic.rack[7].node[5].app 	"End-to-End Delay"
field count 40081
field mean 1.959523778853e-005
field stddev 1.0293441427952e-005
field sum 0.78539672580206
field sqrsum 1.9636709452566e-005
field min 8.992e-006
field max 0.000118616456
statistic Basic.rack[7].node[5].app 	hops
field count 40081
field mean 4.2547591127966
field stddev 0.82907577109238
field sum 170535
field sqrsum 753135
field min 3
field max 5
statistic Basic.rack[7].node[6].app 	throughput
field count 40319
field mean 20160
field stddev 11639.237088401
field sum 812831040
field sqrsum 21848627411520
field min 1
field max 40319
statistic Basic.rack[7].node[6].app 	"End-to-End Delay"
field count 40319
field mean 1.94217541852e-005
field stddev 1.0219066482497e-005
field sum 0.78306570699308
field sqrsum 1.9418890986715e-005
field min 8.992e-006
field max 9.200072e-005
statistic Basic.rack[7].node[6].app 	hops
field count 40319
field mean 4.2465586944121
field stddev 0.83070030674379
field sum 171217
field sqrsum 754905
field min 3
field max 5
statistic Basic.rack[7].node[7].app 	throughput
field count 40119
field mean 20060
field stddev 11581.502061477
field sum 804787140
field sqrsum 21525105108820
field min 1
field max 40119
statistic Basic.rack[7].node[7].app 	"End-to-End Delay"
field count 40119
field mean 1.9517224754382e-005
field stddev 1.0254224242017e-005
field sum 0.78301153992106
field sqrsum 1.9500584397684e-005
field min 8.992e-006
field max 0.000105632019
statistic Basic.rack[7].node[7].app 	hops
field count 40119
field mean 4.2557641017972
field stddev 0.82968932731829
field sum 170737
field sqrsum 754233
field min 3
field max 5
statistic Basic.rack[7].node[8].app 	throughput
field count 40107
field mean 20054
field stddev 11578.037959862
field sum 804305778
field sqrsum 21505795994090
field min 1
field max 40107
statistic Basic.rack[7].node[8].app 	"End-to-End Delay"
field count 40107
field mean 1.9530093934975e-005
field stddev 1.02219826439e-005
field sum 0.78329347745006
field sqrsum 1.9488428186633e-005
field min 8.992e-006
field max 9.6568767e-005
statistic Basic.rack[7].node[8].app 	hops
field count 40107
field mean 4.2491834343132
field stddev 0.8295888993476
field sum 170422
field sqrsum 751756
field min 3
field max 5
statistic Basic.rack[7].node[9].app 	throughput
field count 40178
field mean 20089.5
field stddev 11598.53389442
field sum 807155931
field sqrsum 21620209715789
field min 1
field max 40178
statistic Basic.rack[7].node[9].app 	"End-to-End Delay"
field count 40178
field mean 1.9539644808579e-005
field stddev 1.0209238418373e-005
field sum 0.78506384911907
field sqrsum 1.9527459180357e-005
field min 8.992e-006
field max 8.9619858e-005
statistic Basic.rack[7].node[9].app 	hops
field count 40178
field mean 4.2505600079646
field stddev 0.82962022425927
field sum 170779
field sqrsum 753559
field min 3
field max 5
statistic Basic.rack[7].eps.queue[0] 	dropsum
field count 0
field mean nan
field stddev nan
field sum 0
field sqrsum 0
field min nan
field max nan
statistic Basic.rack[7].eps.queue[1] 	dropsum
field count 0
field mean nan
field stddev nan
field sum 0
field sqrsum 0
field min nan
field max nan
statistic Basic.rack[7].eps.queue[2] 	dropsum
field count 0
field mean nan
field stddev nan
field sum 0
field sqrsum 0
field min nan
field max nan
statistic Basic.rack[7].eps.queue[3] 	dropsum
field count 0
field mean nan
field stddev nan
field sum 0
field sqrsum 0
field min nan
field max nan
statistic Basic.rack[8].node[0].app 	throughput
field count 40274
field mean 20137.5
field stddev 11626.246707343
field sum 811017675
field sqrsum 21775554234525
field min 1
field max 40274
statistic Basic.rack[8].node[0].app 	"End-to-End Delay"
field count 40274
field mean 2.4593892601127e-005
field stddev 8.0826414703251e-006
field sum 0.99049443061778
field sqrsum 2.6991112216567e-005
field min 1.7584e-005
field max 9.6353959e-005
statistic Basic.rack[8].node[0].app 	hops
field count 40274
field mean 5.2454933704127
field stddev 0.83104248711675
field sum 211257
field sqrsum 1135961
field min 4
field max 6
statistic Basic.rack[8].node[1].app 	throughput
field count 39945
field mean 19973
field stddev 11531.272588054
field sum 797821485
field sqrsum 21246252086045
field min 1
field max 39945
statistic Basic.rack[8].node[1].app 	"End-to-End Delay"
field count 39945
field mean 2.4580907809282e-005
field stddev 8.1020897558436e-006
field sum 0.98188436244177
field sqrsum 2.6757687272956e-005
field min 1.7584e-005
field max 0.00010515813
statistic Basic.rack[8].node[1].app 	hops
field count 39945
field mean 5.2523970459382
field stddev 0.82712823802738
field sum 209807
field sqrsum 1129317
field min 4
field max 6
statistic Basic.rack[8].node[2].app 	throughput
field count 40321
field mean 20161
field stddev 11639.81443867
field sum 812911681
field sqrsum 21851878896961
field min 1
field max 40321
statistic Basic.rack[8].node[2].app 	"End-to-End Delay"
field count 40321
field mean 2.4602739748289e-005
field stddev 8.0332361911518e-006
field sum 0.99200706939077
field sqrsum 2.7008057627582e-005
field min 1.7584e-005
field max 0.000108771893
statistic Basic.rack[8].node[2].app 	hops
field count 40321
field mean 5.2532179261427
field stddev 0.82787865045131
field sum 211815
field sqrsum 1140345
field min 4
field max 6
statistic Basic.rack[8].node[3].app 	throughput
field count 39834
field mean 19917.5
field stddev 11499.229648111
field sum 793393695
field sqrsum 21069627428985
field min 1
field max 39834
statistic Basic.rack[8].node[3].app 	"End-to-End Delay"
field count 39834
field mean 2.4578248337771e-005
field stddev 8.0840910428828e-006
field sum 0.97904994428678
field sqrsum 2.6666519913172e-005
field min 1.7584e-005
field max 9.0808924e-005
statistic Basic.rack[8].node[3].app 	hops
field count 39834
field mean 5.2535773459858
field stddev 0.82879926552453
field sum 209271
field sqrsum 1126783
field min 4
field max 6
statistic Basic.rack[8].node[4].app 	throughput
field count 40012
field mean 20006.5
field stddev 11550.613822073
field sum 800500078
field sqrsum 21353339580650
field min 1
field max 40012
statistic Basic.rack[8].node[4].app 	"End-to-End Delay"
field count 40012
field mean 2.4654657771263e-005
field stddev 8.0798892080253e-006
field sum 0.98648216674378
field sqrsum 2.6933482733786e-005
field min 1.7584e-005
field max 9.5489838e-005
statistic Basic.rack[8].node[4].app 	hops
field count 40012
field mean 5.2529241227632
field stddev 0.82859603535663
field sum 210180
field sqrsum 1131530
field min 4
field max 6
statistic Basic.rack[8].node[5].app 	throughput
field count 40235
field mean 20118
field stddev 11614.988377093
field sum 809447730
field sqrsum 21712356093610
field min 1
field max 40235
statistic Basic.rack[8].node[5].app 	"End-to-End Delay"
field count 40235
field mean 2.4640812402579e-005
field stddev 8.0744011951089e-006
field sum 0.99142308701778
field sqrsum 2.7052564338565e-005
field min 1.7584e-005
field max 0.000103153149
statistic Basic.rack[8].node[5].app 	hops
field count 40235
field mean 5.2462532620852
field stddev 0.83168899443734
field sum 211083
field sqrsum 1135225
field min 4
field max 6
statistic Basic.rack[8].node[6].app 	throughput
field count 40026
field mean 20013.5
field stddev 11554.655273958
field sum 801060351
field sqrsum 21375761426201
field min 1
field max 40026
statistic Basic.rack[8].node[6].app 	"End-to-End Delay"
field count 40026
field mean 2.4602343944056e-005
field stddev 8.0384155994421e-006
field sum 0.98473341870477
field sqrsum 2.6813010677289e-005
field min 1.7584e-005
field max 0.000102281323
statistic Basic.rack[8].node[6].app 	hops
field count 40026
field mean 5.247214310698
field stddev 0.82984333456148
field sum 210025
field sqrsum 1129609
field min 4
field max 6
statistic Basic.rack[8].node[7].app 	throughput
field count 39928
field mean 19964.5
field stddev 11526.365110765
field sum 797142556
field sqrsum 21219137698164
field min 1
field max 39928
statistic Basic.rack[8].node[7].app 	"End-to-End Delay"
field count 39928
field mean 2.4711588331291e-005
field stddev 8.12031169488e-006
field sum 0.98668429889178
field sqrsum 2.7015301107315e-005
field min 1.7584e-005
field max 0.000104605744
statistic Basic.rack[8].node[7].app 	hops
field count 39928
field mean 5.2432628731717
field stddev 0.82849706475164
field sum 209353
field sqrsum 1125099
field min 4
field max 6
statistic Basic.rack[8].node[8].app 	throughput
field count 39831
field mean 19916
field stddev 11498.363622707
field sum 793274196
field sqrsum 21064867425316
field min 1
field max 39831
statistic Basic.rack[8].node[8].app 	"End-to-End Delay"
field count 39831
field mean 2.4564145503522e-005
field stddev 8.0457112555289e-006
field sum 0.97841447955078
field sqrsum 2.6612249732899e-005
field min 1.7584e-005
field max 0.000101799094
statistic Basic.rack[8].node[8].app 	hops
field count 39831
field mean 5.2572619316613
field stddev 0.83030167914429
field sum 209402
field sqrsum 1128340
field min 4
field max 6
statistic Basic.rack[8].node[9].app 	throughput
field count 39902
field mean 19951.5
field stddev 11518.859557265
field sum 796104753
field sqrsum 21177713271055
field min 1
field max 39902
statistic Basic.rack[8].node[9].app 	"End-to-End Delay"
field count 39902
field mean 2.4594661262312e-005
field stddev 8.0714800799756e-006
field sum 0.98137617368878
field sqrsum 2.673611645976e-005
field min 1.7584e-005
field max 9.6526907e-005
statistic Basic.rack[8].node[9].app 	hops
field count 39902
field mean 5.2498621622976
field stddev 0.82947255362817
field sum 209480
field sqrsum 1127194
field min 4
field max 6
statistic Basic.rack[8].eps.queue[0] 	dropsum
field count 0
field mean nan
field stddev nan
field sum 0
field sqrsum 0
field min nan
field max nan
statistic Basic.rack[8].eps.queue[1] 	dropsum
field count 0
field mean nan
field stddev nan
field sum 0
field sqrsum 0
field min nan
field max nan
statistic Basic.rack[8].eps.queue[2] 	dropsum
field count 0
field mean nan
field stddev nan
field sum 0
field sqrsum 0
field min nan
field max nan
statistic Basic.rack[8].eps.queue[3] 	dropsum
field count 0
field mean nan
field stddev nan
field sum 0
field sqrsum 0
field min nan
field max nan
statistic Basic.rack[9].node[0].app 	throughput
field count 40283
field mean 20142
field stddev 11628.844783554
field sum 811380186
field sqrsum 21790155815154
field min 1
field max 40283
statistic Basic.rack[9].node[0].app 	"End-to-End Delay"
field count 40283
field mean 2.2791065002607e-005
field stddev 9.9439599103876e-006
field sum 0.91809247150002
field sqrsum 2.490748356385e-005
field min 9.4416e-006
field max 9.9730475e-005
statistic Basic.rack[9].node[0].app 	hops
field count 40283
field mean 5.5024948489437
field stddev 0.4999999818202
field sum 221657
field sqrsum 1229737
field min 5
field max 6
statistic Basic.rack[9].node[1].app 	throughput
field count 39963
field mean 19982
field stddev 11536.468740477
field sum 798540666
field sqrsum 21274986603794
field min 1
field max 39963
statistic Basic.rack[9].node[1].app 	"End-to-End Delay"
field count 39963
field mean 2.2726828949553e-005
field stddev 9.9506236829821e-006
field sum 0.908232265311
field sqrsum 2.4598073240758e-005
field min 9.4416e-006
field max 0.000108744139
statistic Basic.rack[9].node[1].app 	hops
field count 39963
field mean 5.5023396641894
field stddev 0.50000078177704
field sum 219890
field sqrsum 1219900
field min 5
field max 6
statistic Basic.rack[9].node[2].app 	throughput
field count 40047
field mean 20024
field stddev 11560.717451785
field sum 801901128
field sqrsum 21409423615720
field min 1
field max 40047
statistic Basic.rack[9].node[2].app 	"End-to-End Delay"
field count 40047
field mean 2.2859143776363e-005
field stddev 1.0042878404739e-005
field sum 0.915440130812
field sqrsum 2.4965193367685e-005
field min 9.4416e-006
field max 0.000101088938
statistic Basic.rack[9].node[2].app 	hops
field count 40047
field mean 5.4986141283991
field stddev 0.50000432211402
field sum 220203
field sqrsum 1220823
field min 5
field max 6
statistic Basic.rack[9].node[3].app 	throughput
field count 39885
field mean 19943
field stddev 11513.952079977
field sum 795426555
field sqrsum 21150657239635
field min 1
field max 39885
statistic Basic.rack[9].node[3].app 	"End-to-End Delay"
field count 39885
field mean 2.2780150268121e-005
field stddev 1.0057856752878e-005
field sum 0.90858629344401
field sqrsum 2.4732416978701e-005
field min 9.4416e-006
field max 0.000118944804
statistic Basic.rack[9].node[3].app 	hops
field count 39885
field mean 5.5005641218503
field stddev 0.50000594990087
field sum 219390
field sqrsum 1216740
field min 5
field max 6
statistic Basic.rack[9].node[4].app 	throughput
field count 39663
field mean 19832
field stddev 11449.866200092
field sum 786596616
field sqrsum 20799449919144
field min 1
field max 39663
statistic Basic.rack[9].node[4].app 	"End-to-End Delay"
field count 39663
field mean 2.2781349672617e-005
field stddev 9.9950523856277e-006
field sum 0.90357667206501
field sqrsum 2.4546972447589e-005
field min 9.4416e-006
field max 9.3234097e-005
statistic Basic.rack[9].node[4].app 	hops
field count 39663
field mean 5.5030128835439
field stddev 0.49999722555875
field sum 218266
field sqrsum 1211036
field min 5
field max 6
statistic Basic.rack[9].node[5].app 	throughput
field count 39773
field mean 19887
field stddev 11481.6204649
field sum 790965651
field sqrsum 20972981546699
field min 1
field max 39773
statistic Basic.rack[9].node[5].app 	"End-to-End Delay"
field count 39773
field mean 2.2829501855883e-005
field stddev 1.0026518530886e-005
field sum 0.90799777731402
field sqrsum 2.4727458811498e-005
field min 9.4416e-006
field max 9.8469022e-005
statistic Basic.rack[9].node[5].app 	hops
field count 39773
field mean 5.4983531541498
field stddev 0.50000357364701
field sum 218686
field sqrsum 1212356
field min 5
field max 6
statistic Basic.rack[9].node[6].app 	throughput
field count 39918
field mean 19959.5
field stddev 11523.478359419
field sum 796743321
field sqrsum 21203198839559
field min 1
field max 39918
statistic Basic.rack[9].node[6].app 	"End-to-End Delay"
field count 39918
field mean 2.2770123522572e-005
field stddev 9.9899527005205e-006
field sum 0.90893779077401
field sqrsum 2.4680308638741e-005
field min 9.4416e-006
field max 9.2478481e-005
statistic Basic.rack[9].node[6].app 	hops
field count 39918
field mean 5.5007264893031
field stddev 0.5000057351629
field sum 219578
field sqrsum 1217818
field min 5
field max 6
statistic Basic.rack[9].node[7].app 	throughput
field count 40205
field mean 20103
field stddev 11606.328123054
field sum 808241115
field sqrsum 21663825432755
field min 1
field max 40205
statistic Basic.rack[9].node[7].app 	"End-to-End Delay"
field count 40205
field mean 2.2831326872205e-005
field stddev 1.0081606862369e-005
field sum 0.91793349689701
field sqrsum 2.5043925906269e-005
field min 9.4416e-006
field max 9.4693706e-005
statistic Basic.rack[9].node[7].app 	hops
field count 40205
field mean 5.4987936823778
field stddev 0.50000476302565
field sum 221079
field sqrsum 1225719
field min 5
field max 6
statistic Basic.rack[9].node[8].app 	throughput
field count 40092
field mean 20046.5
field stddev 11573.707832843
field sum 803704278
field sqrsum 21481675843810
field min 1
field max 40092
statistic Basic.rack[9].node[8].app 	"End-to-End Delay"
field count 40092
field mean 2.2847407822334e-005
field stddev 9.9991622000511e-006
field sum 0.91599827441301
field sqrsum 2.4936614403453e-005
field min 9.4416e-006
field max 0.0001033235
statistic Basic.rack[9].node[8].app 	hops
field count 40092
field mean 5.5032175995211
field stddev 0.49999588259166
field sum 220635
field sqrsum 1224225
field min 5
field max 6
statistic Basic.rack[9].node[9].app 	throughput
field count 40365
field mean 20183
field stddev 11652.516144593
field sum 814686795
field sqrsum 21923493215715
field min 1
field max 40365
statistic Basic.rack[9].node[9].app 	"End-to-End Delay"
field count 40365
field mean 2.286800454141e-005
field stddev 1.0049395926287e-005
field sum 0.92306700331401
field sqrsum 2.5185075253629e-005
field min 9.4416e-006
field max 0.000104373617
statistic Basic.rack[9].node[9].app 	hops
field count 40365
field mean 5.4973368016846
field stddev 0.4999991008361
field sum 221900
field sqrsum 1229950
field min 5
field max 6
statistic Basic.rack[9].eps.queue[0] 	dropsum
field count 0
field mean nan
field stddev nan
field sum 0
field sqrsum 0
field min nan
field max nan
statistic Basic.rack[9].eps.queue[1] 	dropsum
field count 0
field mean nan
field stddev nan
field sum 0
field sqrsum 0
field min nan
field max nan
statistic Basic.rack[9].eps.queue[2] 	dropsum
field count 0
field mean nan
field stddev nan
field sum 0
field sqrsum 0
field min nan
field max nan
statistic Basic.rack[9].eps.queue[3] 	dropsum
field count 0
field mean nan
field stddev nan
field sum 0
field sqrsum 0
field min nan
field max nan
statistic Basic.rack[10].node[0].app 	throughput
field count 39969
field mean 19985
field stddev 11538.200791285
field sum 798780465
field sqrsum 21284570530545
field min 1
field max 39969
statistic Basic.rack[10].node[0].app 	"End-to-End Delay"
field count 39969
field mean 1.1484034067229e-005
field stddev 8.5318627179796e-006
field sum 0.45900535763306
field sqrsum 8.1806110558305e-006
field min 8.496e-007
field max 7.4804428e-005
statistic Basic.rack[10].node[0].app 	hops
field count 39969
field mean 4.9949961219945
field stddev 0.70882079692098
field sum 199645
field sqrsum 1017307
field min 4
field max 6
statistic Basic.rack[10].node[1].app 	throughput
field count 39808
field mean 19904.5
field stddev 11491.724094611
field sum 792358336
field sqrsum 21028397879104
field min 1
field max 39808
statistic Basic.rack[10].node[1].app 	"End-to-End Delay"
field count 39808
field mean 1.1518519210763e-005
field stddev 8.534467847705e-006
field sum 0.45852921274206
field sqrsum 8.1810056351073e-006
field min 8.496e-007
field max 7.9456012e-005
statistic Basic.rack[10].node[1].app 	hops
field count 39808
field mean 4.9996231913183
field stddev 0.70890737110722
field sum 199025
field sqrsum 1015055
field min 4
field max 6
statistic Basic.rack[10].node[2].app 	throughput
field count 40138
field mean 20069.5
field stddev 11586.986889035
field sum 805549591
field sqrsum 21555701505569
field min 1
field max 40138
statistic Basic.rack[10].node[2].app 	"End-to-End Delay"
field count 40138
field mean 1.1559176308662e-005
field stddev 8.5591765015593e-006
field sum 0.46396221867706
field sqrsum 8.3034377334666e-006
field min 8.496e-007
field max 6.7123988e-005
statistic Basic.rack[10].node[2].app 	hops
field count 40138
field mean 5.0014699287458
field stddev 0.70792398693889
field sum 200749
field sqrsum 1024155
field min 4
field max 6
statistic Basic.rack[10].node[3].app 	throughput
field count 39600
field mean 19800.5
field stddev 11431.679666611
field sum 784099800
field sqrsum 20700496086600
field min 1
field max 39600
statistic Basic.rack[10].node[3].app 	"End-to-End Delay"
field count 39600
field mean 1.1518842921769e-005
field stddev 8.4717110354727e-006
field sum 0.45614617970206
field sqrsum 8.0962919830599e-006
field min 8.496e-007
field max 7.4231242e-005
statistic Basic.rack[10].node[3].app 	hops
field count 39600
field mean 5.000303030303
field stddev 0.7071513565551
field sum 198012
field sqrsum 1009922
field min 4
field max 6
statistic Basic.rack[10].node[4].app 	throughput
field count 39732
field mean 19866.5
field stddev 11469.78478438
field sum 789335778
field sqrsum 20908189199590
field min 1
field max 39732
statistic Basic.rack[10].node[4].app 	"End-to-End Delay"
field count 39732
field mean 1.1514888250203e-005
field stddev 8.5206012938936e-006
field sum 0.45750953995706
field sqrsum 8.1526675085031e-006
field min 8.496e-007
field max 7.6802342e-005
statistic Basic.rack[10].node[4].app 	hops
field count 39732
field mean 4.9978606664653
field stddev 0.70851702842546
field sum 198575
field sqrsum 1012395
field min 4
field max 6
statistic Basic.rack[10].node[5].app 	throughput
field count 39961
field mean 19981
field stddev 11535.891390208
field sum 798460741
field sqrsum 21271792600981
field min 1
field max 39961
statistic Basic.rack[10].node[5].app 	"End-to-End Delay"
field count 39961
field mean 1.1451020368411e-005
field stddev 8.4853064893101e-006
field sum 0.45759422494206
field sqrsum 8.117057821931e-006
field min 8.496e-007
field max 7.0466552e-005
statistic Basic.rack[10].node[5].app 	hops
field count 39961
field mean 4.9930181927379
field stddev 0.70762068152596
field sum 199526
field sqrsum 1016246
field min 4
field max 6
statistic Basic.rack[10].node[6].app 	throughput
field count 40326
field mean 20163.5
field stddev 11641.257814343
field sum 813113301
field sqrsum 21860009021851
field min 1
field max 40326
statistic Basic.rack[10].node[6].app 	"End-to-End Delay"
field count 40326
field mean 1.1507083019765e-005
field stddev 8.4924972610706e-006
field sum 0.46403462985506
field sqrsum 8.248025214622e-006
field min 8.496e-007
field max 7.4196684e-005
statistic Basic.rack[10].node[6].app 	hops
field count 40326
field mean 4.9982889450975
field stddev 0.70528747771195
field sum 201561
field sqrsum 1027519
field min 4
field max 6
statistic Basic.rack[10].node[7].app 	throughput
field count 40055
field mean 20028
field stddev 11563.026852862
field sum 802221540
field sqrsum 21422256596980
field min 1
field max 40055
statistic Basic.rack[10].node[7].app 	"End-to-End Delay"
field count 40055
field mean 1.158433228848e-005
field stddev 8.5080610313964e-006
field sum 0.46401042981506
field sqrsum 8.2746440083924e-006
field min 8.496e-007
field max 8.5907461e-005
statistic Basic.rack[10].node[7].app 	hops
field count 40055
field mean 5.0061914867058
field stddev 0.70769731162259
field sum 200523
field sqrsum 1023917
field min 4
field max 6
statistic Basic.rack[10].node[8].app 	throughput
field count 39708
field mean 19854.5
field stddev 11462.856581149
field sum 788382486
field sqrsum 20870323963554
field min 1
field max 39708
statistic Basic.rack[10].node[8].app 	"End-to-End Delay"
field count 39708
field mean 1.1487755057748e-005
field stddev 8.4135639466974e-006
field sum 0.45615577783306
field sqrsum 8.0509872742517e-006
field min 8.496e-007
field max 6.327007e-005
statistic Basic.rack[10].node[8].app 	hops
field count 39708
field mean 4.9979349249522
field stddev 0.70529391817478
field sum 198458
field sqrsum 1011632
field min 4
field max 6
statistic Basic.rack[10].node[9].app 	throughput
field count 39723
field mean 19862
field stddev 11467.186708169
field sum 788978226
field sqrsum 20893984373674
field min 1
field max 39723
statistic Basic.rack[10].node[9].app 	"End-to-End Delay"
field count 39723
field mean 1.1603572686254e-005
field stddev 8.536751932225e-006
field sum 0.46092871781606
field sqrsum 8.2432056573267e-006
field min 8.496e-007
field max 7.4479238e-005
statistic Basic.rack[10].node[9].app 	hops
field count 39723
field mean 5.0049593434534
field stddev 0.70555677107951
field sum 198812
field sqrsum 1014820
field min 4
field max 6
statistic Basic.rack[10].eps.queue[0] 	dropsum
field count 0
field mean nan
field stddev nan
field sum 0
field sqrsum 0
field min nan
field max nan
statistic Basic.rack[10].eps.queue[1] 	dropsum
field count 0
field mean nan
field stddev nan
field sum 0
field sqrsum 0
field min nan
field max nan
statistic Basic.rack[10].eps.queue[2] 	dropsum
field count 0
field mean nan
field stddev nan
field sum 0
field sqrsum 0
field min nan
field max nan
statistic Basic.rack[10].eps.queue[3] 	dropsum
field count 0
field mean nan
field stddev nan
field sum 0
field sqrsum 0
field min nan
field max nan
statistic Basic.rack[11].node[0].app 	throughput
field count 40141
field mean 20071
field stddev 11587.852914439
field sum 805670011
field sqrsum 21560535164371
field min 1
field max 40141
statistic Basic.rack[11].node[0].app 	"End-to-End Delay"
field count 40141
field mean 2.3491944902716e-005
field stddev 1.0713241718239e-005
field sum 0.94299016033994
field sqrsum 2.6759683111782e-005
field min 8.992e-006
field max 0.000148359186
statistic Basic.rack[11].node[0].app 	hops
field count 40141
field mean 4.492837746942
field stddev 1.1154930009119
field sum 180347
field sqrsum 860217
field min 3
field max 6
statistic Basic.rack[11].node[1].app 	throughput
field count 40032
field mean 20016.5
field stddev 11556.387324765
field sum 801300528
field sqrsum 21385375591440
field min 1
field max 40032
statistic Basic.rack[11].node[1].app 	"End-to-End Delay"
field count 40032
field mean 2.3571171144383e-005
field stddev 1.0582138364853e-005
field sum 0.94360112325194
field sqrsum 2.6724521094343e-005
field min 8.992e-006
field max 0.00011413886
statistic Basic.rack[11].node[1].app 	hops
field count 40032
field mean 4.5083683053557
field stddev 1.1165633489935
field sum 180479
field sqrsum 863573
field min 3
field max 6
statistic Basic.rack[11].node[2].app 	throughput
field count 39736
field mean 19868.5
field stddev 11470.939484919
field sum 789494716
field sqrsum 20914504521556
field min 1
field max 39736
statistic Basic.rack[11].node[2].app 	"End-to-End Delay"
field count 39736
field mean 2.3544310681698e-005
field stddev 1.0757624680439e-005
field sum 0.93555672924795
field sqrsum 2.6625430324852e-005
field min 8.992e-006
field max 0.000164615162
statistic Basic.rack[11].node[2].app 	hops
field count 39736
field mean 4.4928024964767
field stddev 1.1136267904975
field sum 178526
field sqrsum 851360
field min 3
field max 6
statistic Basic.rack[11].node[3].app 	throughput
field count 40060
field mean 20030.5
field stddev 11564.470228535
field sum 802421830
field sqrsum 21430279813810
field min 1
field max 40060
statistic Basic.rack[11].node[3].app 	"End-to-End Delay"
field count 40060
field mean 2.3516685063603e-005
field stddev 1.072582586125e-005
field sum 0.94207840364795
field sqrsum 2.6763082297129e-005
field min 8.992e-006
[...]
statistic Basic.rack[13].node[1].app 	hops
field count 40081
field mean 5.5004366158529
field stddev 0.50000604685023
field sum 220463
field sqrsum 1222663
field min 5
field max 6
statistic Basic.rack[13].node[2].app 	throughput
field count 40212
field mean 20106.5
field stddev 11608.348848997
field sum 808522578
field sqrsum 21675142778550
field min 1
field max 40212
statistic Basic.rack[13].node[2].app 	"End-to-End Delay"
field count 40212
field mean 2.2245596014747e-005
field stddev 9.3147163145201e-006
field sum 0.89453990694502
field sqrsum 2.3388438181112e-005
field min 9.4416e-006
field max 0.000101369754
statistic Basic.rack[13].node[2].app 	hops
field count 40212
field mean 5.5005968367651
field stddev 0.50000586094692
field sum 221190
field sqrsum 1226730
field min 5
field max 6
statistic Basic.rack[13].node[3].app 	throughput
field count 40027
field mean 20014
field stddev 11554.943949092
field sum 801100378
field sqrsum 21377363586930
field min 1
field max 40027
statistic Basic.rack[13].node[3].app 	"End-to-End Delay"
field count 40027
field mean 2.2247598633623e-005
field stddev 9.3584449523089e-006
field sum 0.89050463050802
field sqrsum 2.3317086370731e-005
field min 9.4416e-006
field max 0.00010054971
statistic Basic.rack[13].node[3].app 	hops
field count 40027
field mean 5.4999125590227
field stddev 0.50000623825511
field sum 220145
field sqrsum 1220785
field min 5
field max 6
statistic Basic.rack[13].node[4].app 	throughput
field count 40050
field mean 20025.5
field stddev 11561.583477189
field sum 802021275
field sqrsum 21414235382925
field min 1
field max 40050
statistic Basic.rack[13].node[4].app 	"End-to-End Delay"
field count 40050
field mean 2.214733802432e-005
field stddev 9.2200238045863e-006
field sum 0.88700088787402
field sqrsum 2.3049227483012e-005
field min 9.4416e-006
field max 8.7849608e-005
statistic Basic.rack[13].node[4].app 	hops
field count 40050
field mean 5.499925093633
field stddev 0.50000623670312
field sum 220272
field sqrsum 1221492
field min 5
field max 6
statistic Basic.rack[13].node[5].app 	throughput
field count 40277
field mean 20139
field stddev 11627.112732747
field sum 811138503
field sqrsum 21780420703055
field min 1
field max 40277
statistic Basic.rack[13].node[5].app 	"End-to-End Delay"
field count 40277
field mean 2.2263265928421e-005
field stddev 9.3167349955148e-006
field sum 0.89669756179901
field sqrsum 2.3459435542834e-005
field min 9.4416e-006
field max 0.000105006043
statistic Basic.rack[13].node[5].app 	hops
field count 40277
field mean 5.5006579437396
field stddev 0.50000577423647
field sum 221550
field sqrsum 1228740
field min 5
field max 6
statistic Basic.rack[13].node[6].app 	throughput
field count 39786
field mean 19893.5
field stddev 11485.37324165
field sum 791482791
field sqrsum 20993553376081
field min 1
field max 39786
statistic Basic.rack[13].node[6].app 	"End-to-End Delay"
field count 39786
field mean 2.2163858796185e-005
field stddev 9.2527637294556e-006
field sum 0.88181128606502
field sqrsum 2.2950479362676e-005
field min 9.4416e-006
field max 8.5209235e-005
statistic Basic.rack[13].node[6].app 	hops
field count 39786
field mean 5.5018850852059
field stddev 0.50000273013229
field sum 218898
field sqrsum 1214298
field min 5
field max 6
statistic Basic.rack[13].node[7].app 	throughput
field count 40346
field mean 20173.5
field stddev 11647.031317035
field sum 813920031
field sqrsum 21892549687161
field min 1
field max 40346
statistic Basic.rack[13].node[7].app 	"End-to-End Delay"
field count 40346
field mean 2.2129477753854e-005
field stddev 9.2666461920088e-006
field sum 0.89283590945701
field sqrsum 2.3222447064504e-005
field min 9.4416e-006
field max 8.1290556e-005
statistic Basic.rack[13].node[7].app 	hops
field count 40346
field mean 5.5015119218758
field stddev 0.500003910575
field sum 221964
field sqrsum 1231224
field min 5
field max 6
statistic Basic.rack[13].node[8].app 	throughput
field count 40449
field mean 20225
field stddev 11676.764855901
field sum 818081025
field sqrsum 22060645613825
field min 1
field max 40449
statistic Basic.rack[13].node[8].app 	"End-to-End Delay"
field count 40449
field mean 2.2246988463127e-005
field stddev 9.3428113831812e-006
field sum 0.89986843634501
field sqrsum 2.3549992783162e-005
field min 9.4416e-006
field max 0.000100032108
statistic Basic.rack[13].node[8].app 	hops
field count 40449
field mean 5.497985117061
field stddev 0.50000212091719
field sum 222388
field sqrsum 1232798
field min 5
field max 6
statistic Basic.rack[13].node[9].app 	throughput
field count 39891
field mean 19946
field stddev 11515.684130784
field sum 795665886
field sqrsum 21160203794246
field min 1
field max 39891
statistic Basic.rack[13].node[9].app 	"End-to-End Delay"
field count 39891
field mean 2.2307701188639e-005
field stddev 9.3037032974547e-006
field sum 0.88987650811601
field sqrsum 2.3303933561269e-005
field min 9.4416e-006
field max 9.1178803e-005
statistic Basic.rack[13].node[9].app 	hops
field count 39891
field mean 5.5040485322504
field stddev 0.49998987610813
field sum 219562
field sqrsum 1218452
field min 5
field max 6
statistic Basic.rack[13].eps.queue[0] 	dropsum
field count 0
field mean nan
field stddev nan
field sum 0
field sqrsum 0
field min nan
field max nan
statistic Basic.rack[13].eps.queue[1] 	dropsum
field count 0
field mean nan
field stddev nan
field sum 0
field sqrsum 0
field min nan
field max nan
statistic Basic.rack[13].eps.queue[2] 	dropsum
field count 0
field mean nan
field stddev nan
field sum 0
field sqrsum 0
field min nan
field max nan
statistic Basic.rack[13].eps.queue[3] 	dropsum
field count 0
field mean nan
field stddev nan
field sum 0
field sqrsum 0
field min nan
field max nan
statistic Basic.rack[14].node[0].app 	throughput
field count 40045
field mean 20023
field stddev 11560.140101515
field sum 801821035
field sqrsum 21406216171395
field min 1
field max 40045
statistic Basic.rack[14].node[0].app 	"End-to-End Delay"
field count 40045
field mean 1.1955488886729e-005
field stddev 8.9475885941497e-006
field sum 0.47875755246906
field sqrsum 8.9296768750203e-006
field min 8.496e-007
field max 7.3603335e-005
statistic Basic.rack[14].node[0].app 	hops
field count 40045
field mean 4.9978024722188
field stddev 0.70551232663331
field sum 200137
field sqrsum 1020177
field min 4
field max 6
statistic Basic.rack[14].node[1].app 	throughput
field count 40317
field mean 20159
field stddev 11638.659738131
field sum 812750403
field sqrsum 21845376248635
field min 1
field max 40317
statistic Basic.rack[14].node[1].app 	"End-to-End Delay"
field count 40317
field mean 1.1955632817547e-005
field stddev 8.9078156002197e-006
field sum 0.48201524830506
field sqrsum 8.9618388123854e-006
field min 8.496e-007
field max 7.3008204e-005
statistic Basic.rack[14].node[1].app 	hops
field count 40317
field mean 5.0013889922365
field stddev 0.7055251280648
field sum 201641
field sqrsum 1028553
field min 4
field max 6
statistic Basic.rack[14].node[2].app 	throughput
field count 40099
field mean 20050
field stddev 11575.728558785
field sum 803984950
field sqrsum 21492929668350
field min 1
field max 40099
statistic Basic.rack[14].node[2].app 	"End-to-End Delay"
field count 40099
field mean 1.1958077802565e-005
field stddev 8.9337902663603e-006
field sum 0.47950696180506
field sqrsum 8.9343075327045e-006
field min 8.496e-007
field max 6.9761281e-005
statistic Basic.rack[14].node[2].app 	hops
field count 40099
field mean 5.0000498765555
field stddev 0.71081791293416
field sum 200497
field sqrsum 1022755
field min 4
field max 6
statistic Basic.rack[14].node[3].app 	throughput
field count 40150
field mean 20075.5
field stddev 11590.45099065
field sum 806031325
field sqrsum 21575040476275
field min 1
field max 40150
statistic Basic.rack[14].node[3].app 	"End-to-End Delay"
field count 40150
field mean 1.1989355020475e-005
field stddev 8.9462644754711e-006
field sum 0.48137260407206
field sqrsum 8.9846982815151e-006
field min 8.496e-007
field max 6.9370906e-005
statistic Basic.rack[14].node[3].app 	hops
field count 40150
field mean 5.0011706102117
field stddev 0.7068327721026
field sum 200797
field sqrsum 1024279
field min 4
field max 6
statistic Basic.rack[14].node[4].app 	throughput
field count 39872
field mean 19936.5
field stddev 11510.199303227
field sum 794908128
field sqrsum 21129982889120
field min 1
field max 39872
statistic Basic.rack[14].node[4].app 	"End-to-End Delay"
field count 39872
field mean 1.2007034215942e-005
field stddev 8.930671961299e-006
field sum 0.47874446825806
field sqrsum 8.9282886379642e-006
field min 8.496e-007
field max 7.5318276e-005
statistic Basic.rack[14].node[4].app 	hops
field count 39872
field mean 5.0045144462279
field stddev 0.70660448265139
field sum 199540
field sqrsum 1018508
field min 4
field max 6
statistic Basic.rack[14].node[5].app 	throughput
field count 40107
field mean 20054
field stddev 11578.037959862
field sum 804305778
field sqrsum 21505795994090
field min 1
field max 40107
statistic Basic.rack[14].node[5].app 	"End-to-End Delay"
field count 40107
field mean 1.1901004253698e-005
field stddev 8.9003972466926e-006
field sum 0.47731357760307
field sqrsum 8.857590772901e-006
field min 8.496e-007
field max 6.6392664e-005
statistic Basic.rack[14].node[5].app 	hops
field count 40107
field mean 4.9966340040392
field stddev 0.70882451597581
field sum 200400
field sqrsum 1021476
field min 4
field max 6
statistic Basic.rack[14].node[6].app 	throughput
field count 39923
field mean 19962
field stddev 11524.921735092
field sum 796942926
field sqrsum 21211167270774
field min 1
field max 39923
statistic Basic.rack[14].node[6].app 	"End-to-End Delay"
field count 39923
field mean 1.1961370838967e-005
field stddev 8.9526513926815e-006
field sum 0.47753380800406
field sqrsum 8.9117059466129e-006
field min 8.496e-007
field max 7.0074798e-005
statistic Basic.rack[14].node[6].app 	hops
field count 39923
field mean 5
field stddev 0.71030545611725
field sum 199615
field sqrsum 1018217
field min 4
field max 6
statistic Basic.rack[14].node[7].app 	throughput
field count 39946
field mean 19973.5
field stddev 11531.561263188
field sum 797861431
field sqrsum 21247847768961
field min 1
field max 39946
statistic Basic.rack[14].node[7].app 	"End-to-End Delay"
field count 39946
field mean 1.1976323926452e-005
field stddev 8.9704895377756e-006
field sum 0.47840623556606
field sqrsum 8.9439095149274e-006
field min 8.496e-007
field max 7.1599248e-005
statistic Basic.rack[14].node[7].app 	hops
field count 39946
field mean 5.0004255745256
field stddev 0.70708009959855
field sum 199747
field sqrsum 1018791
field min 4
field max 6
statistic Basic.rack[14].node[8].app 	throughput
field count 40002
field mean 20001.5
field stddev 11547.727070727
field sum 800100003
field sqrsum 21337333580005
field min 1
field max 40002
statistic Basic.rack[14].node[8].app 	"End-to-End Delay"
field count 40002
field mean 1.1961686963953e-005
field stddev 8.9493376858922e-006
field sum 0.47849140193206
field sqrsum 8.9272702561447e-006
field min 8.496e-007
field max 6.7236489e-005
statistic Basic.rack[14].node[8].app 	hops
field count 40002
field mean 5.0009999500025
field stddev 0.70907434757523
field sum 200050
field sqrsum 1020562
field min 4
field max 6
statistic Basic.rack[14].node[9].app 	throughput
field count 40099
field mean 20050
field stddev 11575.728558785
field sum 803984950
field sqrsum 21492929668350
field min 1
field max 40099
statistic Basic.rack[14].node[9].app 	"End-to-End Delay"
field count 40099
field mean 1.1949907171253e-005
field stddev 8.9262626640192e-006
field sum 0.47917932766006
field sqrsum 8.921083549988e-006
field min 8.496e-007
field max 7.3160481e-005
statistic Basic.rack[14].node[9].app 	hops
field count 40099
field mean 4.9994264196115
field stddev 0.70774110477376
field sum 200472
field sqrsum 1022330
field min 4
field max 6
statistic Basic.rack[14].eps.queue[0] 	dropsum
field count 0
field mean nan
field stddev nan
field sum 0
field sqrsum 0
field min nan
field max nan
statistic Basic.rack[14].eps.queue[1] 	dropsum
field count 0
field mean nan
field stddev nan
field sum 0
field sqrsum 0
field min nan
field max nan
statistic Basic.rack[14].eps.queue[2] 	dropsum
field count 0
field mean nan
field stddev nan
field sum 0
field sqrsum 0
field min nan
field max nan
statistic Basic.rack[14].eps.queue[3] 	dropsum
field count 0
field mean nan
field stddev nan
field sum 0
field sqrsum 0
field min nan
field max nan
statistic Basic.rack[15].node[0].app 	throughput
field count 40139
field mean 20070
field stddev 11587.27556417
field sum 805589730
field sqrsum 21557312644890
field min 1
field max 40139
statistic Basic.rack[15].node[0].app 	"End-to-End Delay"
field count 40139
field mean 2.1708831568821e-005
field stddev 9.1266790935339e-006
field sum 0.87137079034092
field sqrsum 2.2259787457992e-005
field min 8.992e-006
field max 9.1280554e-005
statistic Basic.rack[15].node[0].app 	hops
field count 40139
field mean 4.4883280599915
field stddev 1.120669081485
field sum 180157
field sqrsum 859013
field min 3
field max 6
statistic Basic.rack[15].node[1].app 	throughput
field count 40192
field mean 20096.5
field stddev 11602.575346304
field sum 807718528
field sqrsum 21642817957760
field min 1
field max 40192
statistic Basic.rack[15].node[1].app 	"End-to-End Delay"
field count 40192
field mean 2.1838111909159e-005
field stddev 9.0877384070449e-006
field sum 0.87771739385291
field sqrsum 2.2486944360737e-005
field min 8.992e-006
field max 0.000104169312
statistic Basic.rack[15].node[1].app 	hops
field count 40192
field mean 4.5070412022293
field stddev 1.1155081229048
field sum 181147
field sqrsum 866449
field min 3
field max 6
statistic Basic.rack[15].node[2].app 	throughput
field count 40072
field mean 20036.5
field stddev 11567.93433015
field sum 802902628
field sqrsum 21449543707020
field min 1
field max 40072
statistic Basic.rack[15].node[2].app 	"End-to-End Delay"
field count 40072
field mean 2.1831535038653e-005
field stddev 9.0365409296793e-006
field sum 0.87483327206891
field sqrsum 2.2371113905213e-005
field min 8.992e-006
field max 9.2959724e-005
statistic Basic.rack[15].node[2].app 	hops
field count 40072
field mean 4.5089588740268
field stddev 1.1135612067415
field sum 180683
field sqrsum 864381
field min 3
field max 6
statistic Basic.rack[15].node[3].app 	throughput
field count 39780
field mean 19890.5
field stddev 11483.641190842
field sum 791244090
field sqrsum 20984057014830
field min 1
field max 39780
statistic Basic.rack[15].node[3].app 	"End-to-End Delay"
field count 39780
field mean 2.1849633493789e-005
field stddev 9.133806698448e-006
field sum 0.86917842038292
field sqrsum 2.230984967838e-005
field min 8.992e-006
field max 0.000118884909
statistic Basic.rack[15].node[3].app 	hops
field count 39780
field mean 4.5097033685269
field stddev 1.1157776504288
field sum 179396
field sqrsum 858546
field min 3
field max 6
statistic Basic.rack[15].node[4].app 	throughput
field count 39866
field mean 19933.5
field stddev 11508.467252419
field sum 794668911
field sqrsum 21120445426921
field min 1
field max 39866
statistic Basic.rack[15].node[4].app 	"End-to-End Delay"
field count 39866
field mean 2.1817675441101e-005
field stddev 9.098424577429e-006
field sum 0.86978344913492
field sqrsum 2.2276730709392e-005
field min 8.992e-006
field max 9.720948e-005
statistic Basic.rack[15].node[4].app 	hops
field count 39866
field mean 4.5035870165053
field stddev 1.1188048291572
field sum 179540
field sqrsum 858474
field min 3
field max 6
statistic Basic.rack[15].node[5].app 	throughput
field count 39968
field mean 19984.5
field stddev 11537.91211615
field sum 798740496
field sqrsum 21282973009584
field min 1
field max 39968
statistic Basic.rack[15].node[5].app 	"End-to-End Delay"
field count 39968
field mean 2.1787250145865e-005
field stddev 9.1560141225486e-006
field sum 0.87079281382992
field sqrsum 2.2322718169004e-005
field min 8.992e-006
field max 0.000104223757
statistic Basic.rack[15].node[5].app 	hops
field count 39968
field mean 4.5051040832666
field stddev 1.1213881647733
field sum 180060
field sqrsum 861448
field min 3
field max 6
statistic Basic.rack[15].node[6].app 	throughput
field count 39765
field mean 19883
field stddev 11479.311063823
field sum 790647495
field sqrsum 20960328641615
field min 1
field max 39765
statistic Basic.rack[15].node[6].app 	"End-to-End Delay"
field count 39765
field mean 2.1816070213829e-005
field stddev 9.1962367350946e-006
field sum 0.86751603205292
field sqrsum 2.2288662768664e-005
field min 8.992e-006
field max 9.2322854e-005
statistic Basic.rack[15].node[6].app 	hops
field count 39765
field mean 4.506324657362
field stddev 1.1160151764081
field sum 179194
field sqrsum 857032
field min 3
field max 6
statistic Basic.rack[15].node[7].app 	throughput
field count 39859
field mean 19930
field stddev 11506.446526477
field sum 794389870
field sqrsum 21109322015510
field min 1
field max 39859
statistic Basic.rack[15].node[7].app 	"End-to-End Delay"
field count 39859
field mean 2.1863963104165e-005
field stddev 9.1680759614959e-006
field sum 0.87147570536891
field sqrsum 2.2404121728202e-005
field min 8.992e-006
field max 0.000113396342
statistic Basic.rack[15].node[7].app 	hops
field count 39859
field mean 4.5106500413959
field stddev 1.1161893188208
field sum 179790
field sqrsum 860628
field min 3
field max 6
statistic Basic.rack[15].node[8].app 	throughput
field count 40059
field mean 20030
field stddev 11564.1815534
field sum 802381770
field sqrsum 21428675010210
field min 1
field max 40059
statistic Basic.rack[15].node[8].app 	"End-to-End Delay"
field count 40059
field mean 2.189916697838e-005
field stddev 9.1545879391186e-006
field sum 0.87725872998692
field sqrsum 2.2568355400487e-005
field min 8.992e-006
field max 8.451345e-005
statistic Basic.rack[15].node[8].app 	hops
field count 40059
field mean 4.5076512144587
field stddev 1.1162228675353
field sum 180572
field sqrsum 863866
field min 3
field max 6
statistic Basic.rack[15].node[9].app 	throughput
field count 39802
field mean 19901.5
field stddev 11489.992043803
field sum 792119503
field sqrsum 21018891012105
field min 1
field max 39802
statistic Basic.rack[15].node[9].app 	"End-to-End Delay"
field count 39802
field mean 2.1756492413043e-005
field stddev 9.0792235038315e-006
field sum 0.86595191102392
field sqrsum 2.2120964131966e-005
field min 8.992e-006
field max 0.000110013132
statistic Basic.rack[15].node[9].app 	hops
field count 39802
field mean 4.5033666649917
field stddev 1.1207363966493
field sum 179243
field sqrsum 857189
field min 3
field max 6
statistic Basic.rack[15].eps.queue[0] 	dropsum
field count 0
field mean nan
field stddev nan
field sum 0
field sqrsum 0
field min nan
field max nan
statistic Basic.rack[15].eps.queue[1] 	dropsum
field count 0
field mean nan
field stddev nan
field sum 0
field sqrsum 0
field min nan
field max nan
statistic Basic.rack[15].eps.queue[2] 	dropsum
field count 0
field mean nan
field stddev nan
field sum 0
field sqrsum 0
field min nan
field max nan
statistic Basic.rack[15].eps.queue[3] 	dropsum
field count 0
field mean nan
field stddev nan
field sum 0
field sqrsum 0
field min nan
field max nan
