version 2
run Basic-38-20180510-17:06:00-23656
attr configname Basic
attr datetime 20180510-17:06:00
attr experiment Basic
attr inifile omnetpp.ini
attr iterationvars "$0=exponential(0.1 ms), $1=5, $2=4"
attr iterationvarsf exponential(0.1_ms),5,4-
attr measurement "$0=exponential(0.1 ms), $1=5, $2=4"
attr network Networks.Basic
attr processid 23656
attr repetition 0
attr replication #0
attr resultdir results
attr runnumber 38
attr seedset 38
param **.frameCapacity 50
param **.packetLength "1024 bytes"
param **.pattern 5
param **.sendIaTime "exponential(0.1 ms)"
param **.tp 4

statistic Basic.rack[0].node[0].app 	throughput
field count 93151
field mean 46576
field stddev 26890.521799821
field sum 4338600976
field sqrsum 2.6943145921058e+014
field min 1
field max 93151
statistic Basic.rack[0].node[0].app 	"End-to-End Delay"
field count 93151
field mean 0.0003730861858132
field stddev 0.00021300583326333
field sum 34.753351294685
field sqrsum 0.017192349106902
field min 8.992e-006
field max 0.000837069357
statistic Basic.rack[0].node[0].app 	hops
field count 93151
field mean 4.4174082940602
field stddev 1.4977325166628
field sum 411486
field sqrsum 2026656
field min 3
field max 6
statistic Basic.rack[0].node[1].app 	throughput
field count 93202
field mean 46601.5
field stddev 26905.244231686
field sum 4343353003
field sqrsum 2.698742388414e+014
field min 1
field max 93202
statistic Basic.rack[0].node[1].app 	"End-to-End Delay"
field count 93202
field mean 0.00037225520914748
field stddev 0.00021327858601701
field sum 34.694930002963
field sqrsum 0.017154872701984
field min 8.992e-006
field max 0.000837111816
statistic Basic.rack[0].node[1].app 	hops
field count 93202
field mean 4.4129954292826
field stddev 1.4974826425792
field sum 411300
field sqrsum 2024064
field min 3
field max 6
statistic Basic.rack[0].node[2].app 	throughput
field count 93550
field mean 46775.5
field stddev 27005.703178526
field sum 4375848025
field sqrsum 2.7290851377518e+014
field min 1
field max 93550
statistic Basic.rack[0].node[2].app 	"End-to-End Delay"
field count 93550
field mean 0.00037211031028877
field stddev 0.00021318303614391
field sum 34.810919527514
field sqrsum 0.017205024115265
field min 8.992e-006
field max 0.000837014938
statistic Basic.rack[0].node[2].app 	hops
field count 93550
field mean 4.4087653661144
field stddev 1.497230845317
field sum 412440
field sqrsum 2028060
field min 3
field max 6
statistic Basic.rack[0].node[3].app 	throughput
field count 93153
field mean 46577
field stddev 26891.099150091
field sum 4338787281
field sqrsum 2.6944881398709e+014
field min 1
field max 93153
statistic Basic.rack[0].node[3].app 	"End-to-End Delay"
field count 93153
field mean 0.00037286526585059
field stddev 0.0002128903537777
field sum 34.73351810978
field sqrsum 0.017172785607983
field min 8.992e-006
field max 0.000836813746
statistic Basic.rack[0].node[3].app 	hops
field count 93153
field mean 4.4172490418988
field stddev 1.4977237260232
field sum 411480
field sqrsum 2026566
field min 3
field max 6
statistic Basic.rack[0].node[4].app 	throughput
field count 93064
field mean 46532.5
field stddev 26865.407063111
field sum 4330500580
field sqrsum 2.6867724748494e+014
field min 1
field max 93064
statistic Basic.rack[0].node[4].app 	"End-to-End Delay"
field count 93064
field mean 0.00037332119427619
field stddev 0.00021339192415433
field sum 34.742763624119
field sqrsum 0.017207937320118
field min 8.992e-006
field max 0.000836886585
statistic Basic.rack[0].node[4].app 	hops
field count 93064
field mean 4.4159288231754
field stddev 1.4976502056386
field sum 410964
field sqrsum 2023524
field min 3
field max 6
statistic Basic.rack[0].node[5].app 	throughput
field count 92939
field mean 46470
field stddev 26829.322671286
field sum 4318875330
field sqrsum 2.6759607582169e+014
field min 1
field max 92939
statistic Basic.rack[0].node[5].app 	"End-to-End Delay"
field count 92939
field mean 0.00037071259551054
field stddev 0.00021383421243629
field sum 34.453657914154
field sqrsum 0.01702200154379
field min 8.992e-006
field max 0.000837231066
statistic Basic.rack[0].node[5].app 	hops
field count 92939
field mean 4.4041790852064
field stddev 1.4969443754472
field sum 409320
field sqrsum 2010978
field min 3
field max 6
statistic Basic.rack[0].node[6].app 	throughput
field count 93016
field mean 46508.5
field stddev 26851.55065665
field sum 4326034636
field sqrsum 2.68261733813e+014
field min 1
field max 93016
statistic Basic.rack[0].node[6].app 	"End-to-End Delay"
field count 93016
field mean 0.00037235824469501
field stddev 0.0002136846347606
field sum 34.635274488551
field sqrsum 0.017143899381282
field min 8.992e-006
field max 0.000836475637
statistic Basic.rack[0].node[6].app 	hops
field count 93016
field mean 4.4176593274275
field stddev 1.4977463504866
field sum 410913
field sqrsum 2023929
field min 3
field max 6
statistic Basic.rack[0].node[7].app 	throughput
field count 93093
field mean 46547
field stddev 26873.778642015
field sum 4333199871
field sqrsum 2.6892849479396e+014
field min 1
field max 93093
statistic Basic.rack[0].node[7].app 	"End-to-End Delay"
field count 93093
field mean 0.00037380923477524
field stddev 0.00021394812765259
field sum 34.799023092931
field sqrsum 0.017269370906339
field min 8.992e-006
field max 0.00083675511
statistic Basic.rack[0].node[7].app 	hops
field count 93093
field mean 4.4245109728981
field stddev 1.4981073109798
field sum 411891
field sqrsum 2031345
field min 3
field max 6
statistic Basic.rack[0].node[8].app 	throughput
field count 93296
field mean 46648.5
field stddev 26932.379694338
field sum 4352118456
field sqrsum 2.7069161302014e+014
field min 1
field max 93296
statistic Basic.rack[0].node[8].app 	"End-to-End Delay"
field count 93296
field mean 0.0003724157781691
field stddev 0.0002133700340739
field sum 34.744902440064
field sqrsum 0.017186970021186
field min 8.992e-006
field max 0.000836045682
statistic Basic.rack[0].node[8].app 	hops
field count 93296
field mean 4.4147551877894
field stddev 1.4975838411087
field sum 411879
field sqrsum 2027583
field min 3
field max 6
statistic Basic.rack[0].node[9].app 	throughput
field count 93552
field mean 46776.5
field stddev 27006.280528796
field sum 4376035128
field sqrsum 2.7292601754148e+014
field min 1
field max 93552
statistic Basic.rack[0].node[9].app 	"End-to-End Delay"
field count 93552
field mean 0.00037270932704812
field stddev 0.00021358782372198
field sum 34.867702964006
field sqrsum 0.017263292129463
field min 8.992e-006
field max 0.000837109307
statistic Basic.rack[0].node[9].app 	hops
field count 93552
field mean 4.4164956387891
field stddev 1.4976818748234
field sum 413172
field sqrsum 2034612
field min 3
field max 6
statistic Basic.rack[0].eps.queue[0] 	dropsum
field count 28319
field mean 14160
field stddev 8175.1354728836
field sum 400997040
field sqrsum 7570690449520
field min 1
field max 28319
statistic Basic.rack[0].eps.queue[1] 	dropsum
field count 15630
field mean 7815.5
field stddev 4512.1366889756
field sum 122156265
field sqrsum 1272909000055
field min 1
field max 15630
statistic Basic.rack[0].eps.queue[2] 	dropsum
field count 0
field mean nan
field stddev nan
field sum 0
field sqrsum 0
field min nan
field max nan
statistic Basic.rack[0].eps.queue[3] 	dropsum
field count 0
field mean nan
field stddev nan
field sum 0
field sqrsum 0
field min nan
field max nan
statistic Basic.rack[1].node[0].app 	throughput
field count 94684
field mean 47342.5
field stddev 27333.060781161
field sum 4482577270
field sqrsum 2.8295372501421e+014
field min 1
field max 94684
statistic Basic.rack[1].node[0].app 	"End-to-End Delay"
field count 94684
field mean 0.00030347355933256
field stddev 0.0002232164836841
field sum 28.734090491844
field sqrsum 0.013437673866879
field min 8.992e-006
field max 0.000836709716
statistic Basic.rack[1].node[0].app 	hops
field count 94684
field mean 4.4470237843775
field stddev 1.4990721311675
field sum 421062
field sqrsum 2085246
field min 3
field max 6
statistic Basic.rack[1].node[1].app 	throughput
field count 94721
field mean 47361
field stddev 27343.741761142
field sum 4486081281
field sqrsum 2.8328556537216e+014
field min 1
field max 94721
statistic Basic.rack[1].node[1].app 	"End-to-End Delay"
field count 94721
field mean 0.00030207337988275
field stddev 0.00022316877982456
field sum 28.612692615874
field sqrsum 0.013360596468219
field min 8.992e-006
field max 0.000836663132
statistic Basic.rack[1].node[1].app 	hops
field count 94721
field mean 4.4348666082495
field stddev 1.4985931238043
field sum 420075
field sqrsum 2075697
field min 3
field max 6
statistic Basic.rack[1].node[2].app 	throughput
field count 95214
field mean 47607.5
field stddev 27486.058602499
field sum 4532900505
field sqrsum 2.8773190342222e+014
field min 1
field max 95214
statistic Basic.rack[1].node[2].app 	"End-to-End Delay"
field count 95214
field mean 0.00030267460705575
field stddev 0.00022274650859286
field sum 28.818860036206
field sqrsum 0.013446826020343
field min 8.992e-006
field max 0.000836835785
statistic Basic.rack[1].node[2].app 	hops
field count 95214
field mean 4.433360640242
field stddev 1.4985268700684
field sum 422118
field sqrsum 2085210
field min 3
field max 6
statistic Basic.rack[1].node[3].app 	throughput
field count 95172
field mean 47586.5
field stddev 27473.934246846
field sum 4528902378
field sqrsum 2.8735130771347e+014
field min 1
field max 95172
statistic Basic.rack[1].node[3].app 	"End-to-End Delay"
field count 95172
field mean 0.00030226850743734
field stddev 0.00022341439225574
field sum 28.767498389827
field sqrsum 0.013445873206768
field min 8.992e-006
field max 0.000836849201
statistic Basic.rack[1].node[3].app 	hops
field count 95172
field mean 4.4362312444837
field stddev 1.4986517756796
field sum 422205
field sqrsum 2086749
field min 3
field max 6
statistic Basic.rack[1].node[4].app 	throughput
field count 94886
field mean 47443.5
field stddev 27391.37315835
field sum 4501723941
field sqrsum 2.8476855248513e+014
field min 1
field max 94886
statistic Basic.rack[1].node[4].app 	"End-to-End Delay"
field count 94886
field mean 0.00030212624073529
field stddev 0.00022323601193823
field sum 28.667550478408
field sqrsum 0.013389748428151
field min 8.992e-006
field max 0.000836524831
statistic Basic.rack[1].node[4].app 	hops
field count 94886
field mean 4.4398330628333
field stddev 1.498800725392
field sum 421278
field sqrsum 2083554
field min 3
field max 6
statistic Basic.rack[1].node[5].app 	throughput
field count 95059
field mean 47530
field stddev 27441.313956636
field sum 4518154270
field sqrsum 2.8632899055271e+014
field min 1
field max 95059
statistic Basic.rack[1].node[5].app 	"End-to-End Delay"
field count 95059
field mean 0.00030231945948472
field stddev 0.00022287376815798
field sum 28.738185499158
field sqrsum 0.013409901794865
field min 8.992e-006
field max 0.000836381011
statistic Basic.rack[1].node[5].app 	hops
field count 95059
field mean 4.4370233223577
field stddev 1.4986852792064
field sum 421779
field sqrsum 2084949
field min 3
field max 6
statistic Basic.rack[1].node[6].app 	throughput
field count 94822
field mean 47411.5
field stddev 27372.897949736
field sum 4495653253
field sqrsum 2.841927203884e+014
field min 1
field max 94822
statistic Basic.rack[1].node[6].app 	"End-to-End Delay"
field count 94822
field mean 0.00030232283685851
field stddev 0.0002236654730288
field sum 28.666856036598
field sqrsum 0.013410183706548
field min 8.992e-006
field max 0.00083712313
statistic Basic.rack[1].node[6].app 	hops
field count 94822
field mean 4.434983442661
field stddev 1.4985981888459
field sum 420534
field sqrsum 2078010
field min 3
field max 6
statistic Basic.rack[1].node[7].app 	throughput
field count 95008
field mean 47504.5
field stddev 27426.591524771
field sum 4513307536
field sqrsum 2.858683860227e+014
field min 1
field max 95008
statistic Basic.rack[1].node[7].app 	"End-to-End Delay"
field count 95008
field mean 0.00030108898637113
field stddev 0.00022408397928755
field sum 28.605862417148
field sqrsum 0.013383556443327
field min 8.992e-006
field max 0.000836849086
statistic Basic.rack[1].node[7].app 	hops
field count 95008
field mean 4.428984927585
field stddev 1.4983258954158
field sum 420789
field sqrsum 2076957
field min 3
field max 6
statistic Basic.rack[1].node[8].app 	throughput
field count 94676
field mean 47338.5
field stddev 27330.751380085
field sum 4481819826
field sqrsum 2.8288200983753e+014
field min 1
field max 94676
statistic Basic.rack[1].node[8].app 	"End-to-End Delay"
field count 94676
field mean 0.00030171023503424
field stddev 0.00022377155690347
field sum 28.564718212102
field sqrsum 0.01335899630932
field min 8.992e-006
field max 0.000836697244
statistic Basic.rack[1].node[8].app 	hops
field count 94676
field mean 4.4330770205754
field stddev 1.4985142752182
field sum 419706
field sqrsum 2073186
field min 3
field max 6
statistic Basic.rack[1].node[9].app 	throughput
field count 94926
field mean 47463.5
field stddev 27402.920163734
field sum 4505520201
field sqrsum 2.8512884224015e+014
field min 1
field max 94926
statistic Basic.rack[1].node[9].app 	"End-to-End Delay"
field count 94926
field mean 0.0003019949846267
field stddev 0.00022317182331673
field sum 28.667175910674
field sqrsum 0.013385145882369
field min 8.992e-006
field max 0.000836472733
statistic Basic.rack[1].node[9].app 	hops
field count 94926
field mean 4.4366348524114
field stddev 1.4986689156369
field sum 421152
field sqrsum 2081700
field min 3
field max 6
statistic Basic.rack[1].eps.queue[0] 	dropsum
field count 4505
field mean 2253
field stddev 1300.625810908
field sum 10149765
field sqrsum 30486510805
field min 1
field max 4505
statistic Basic.rack[1].eps.queue[1] 	dropsum
field count 0
field mean nan
field stddev nan
field sum 0
field sqrsum 0
field min nan
field max nan
statistic Basic.rack[1].eps.queue[2] 	dropsum
field count 0
field mean nan
field stddev nan
field sum 0
field sqrsum 0
field min nan
field max nan
statistic Basic.rack[1].eps.queue[3] 	dropsum
field count 0
field mean nan
field stddev nan
field sum 0
field sqrsum 0
field min nan
field max nan
statistic Basic.rack[2].node[0].app 	throughput
field count 98646
field mean 49323.5
field stddev 28476.791664441
field sum 4865565981
field sqrsum 3.1998070302981e+014
field min 1
field max 98646
statistic Basic.rack[2].node[0].app 	"End-to-End Delay"
field count 98646
field mean 0.00021784787108324
field stddev 0.0002435459350414
field sum 21.489821090877
field sqrsum 0.010532602708673
field min 8.992e-006
field max 0.000863825835
statistic Basic.rack[2].node[0].app 	hops
field count 98646
field mean 4.741357987146
field stddev 1.0907385829026
field sum 467716
field sqrsum 2334968
field min 3
field max 6
statistic Basic.rack[2].node[1].app 	throughput
field count 98337
field mean 49169
field stddev 28387.59104785
field sum 4835131953
field sqrsum 3.1698319228542e+014
field min 1
field max 98337
statistic Basic.rack[2].node[1].app 	"End-to-End Delay"
field count 98337
field mean 0.00021831174662697
field stddev 0.00024362519319349
field sum 21.468122228056
field sqrsum 0.010523302953627
field min 8.992e-006
field max 0.000872415853
statistic Basic.rack[2].node[1].app 	hops
field count 98337
field mean 4.7391012538516
field stddev 1.0919359370197
field sum 466029
field sqrsum 2325807
field min 3
field max 6
statistic Basic.rack[2].node[2].app 	throughput
field count 98766
field mean 49383.5
field stddev 28511.432680593
field sum 4877410761
field sqrsum 3.2114985995087e+014
field min 1
field max 98766
statistic Basic.rack[2].node[2].app 	"End-to-End Delay"
field count 98766
field mean 0.0002189739022357
field stddev 0.00024432272468314
field sum 21.627176428211
field sqrsum 0.010631425008146
field min 8.992e-006
field max 0.000874320351
statistic Basic.rack[2].node[2].app 	hops
field count 98766
field mean 4.7431504768848
field stddev 1.0913625218409
field sum 468462
field sqrsum 2339622
field min 3
field max 6
statistic Basic.rack[2].node[3].app 	throughput
field count 98854
field mean 49427.5
field stddev 28536.836092438
field sum 4886106085
field sqrsum 3.2200904931976e+014
field min 1
field max 98854
statistic Basic.rack[2].node[3].app 	"End-to-End Delay"
field count 98854
field mean 0.00021693095853238
field stddev 0.00024351342440088
field sum 21.44449297476
field sqrsum 0.01051383749292
field min 8.992e-006
field max 0.000890656168
statistic Basic.rack[2].node[3].app 	hops
field count 98854
field mean 4.7378052481437
field stddev 1.093474400117
field sum 468351
field sqrsum 2337153
field min 3
field max 6
statistic Basic.rack[2].node[4].app 	throughput
field count 98500
field mean 49250.5
field stddev 28434.64509479
field sum 4851174250
field sqrsum 3.1856205947475e+014
field min 1
field max 98500
statistic Basic.rack[2].node[4].app 	"End-to-End Delay"
field count 98500
field mean 0.00021706200250239
field stddev 0.00024347341863884
field sum 21.380607246485
field sqrsum 0.010479869744326
field min 8.992e-006
field max 0.000879063534
statistic Basic.rack[2].node[4].app 	hops
field count 98500
field mean 4.7368223350254
field stddev 1.0939048577245
field sum 466577
field sqrsum 2327959
field min 3
field max 6
statistic Basic.rack[2].node[5].app 	throughput
field count 98281
field mean 49141
field stddev 28371.425240313
field sum 4829626621
field sqrsum 3.1644196583454e+014
field min 1
field max 98281
statistic Basic.rack[2].node[5].app 	"End-to-End Delay"
field count 98281
field mean 0.00021719735251495
field stddev 0.00024330898323865
field sum 21.346373002522
field sqrsum 0.010454479104929
field min 8.992e-006
field max 0.000865833264
statistic Basic.rack[2].node[5].app 	hops
field count 98281
field mean 4.7378130055657
field stddev 1.0941995917173
field sum 465637
field sqrsum 2323769
field min 3
field max 6
statistic Basic.rack[2].node[6].app 	throughput
field count 98116
field mean 49058.5
field stddev 28323.793843104
field sum 4813423786
field sqrsum 3.1485086326605e+014
field min 1
field max 98116
statistic Basic.rack[2].node[6].app 	"End-to-End Delay"
field count 98116
field mean 0.00021790499385213
field stddev 0.00024421049859012
field sum 21.379966376795
field sqrsum 0.010510259127091
field min 8.992e-006
field max 0.00087608093
statistic Basic.rack[2].node[6].app 	hops
field count 98116
field mean 4.7366484569285
field stddev 1.0909525377031
field sum 464741
field sqrsum 2318089
field min 3
field max 6
statistic Basic.rack[2].node[7].app 	throughput
field count 99155
field mean 49578
field stddev 28623.727307952
field sum 4915906590
field sqrsum 3.2495945058983e+014
field min 1
field max 99155
statistic Basic.rack[2].node[7].app 	"End-to-End Delay"
field count 99155
field mean 0.00021747060094672
field stddev 0.0002426826327566
field sum 21.563297436872
field sqrsum 0.010529044224392
field min 8.992e-006
field max 0.000872305132
statistic Basic.rack[2].node[7].app 	hops
field count 99155
field mean 4.743300892542
field stddev 1.0926816647238
field sum 470322
field sqrsum 2349264
field min 3
field max 6
statistic Basic.rack[2].node[8].app 	throughput
field count 98410
field mean 49205.5
field stddev 28408.664332676
field sum 4842313255
field sqrsum 3.1768964572078e+014
field min 1
field max 98410
statistic Basic.rack[2].node[8].app 	"End-to-End Delay"
field count 98410
field mean 0.00021800408891038
field stddev 0.00024411131253654
field sum 21.45378238967
field sqrsum 0.010541237354716
field min 8.992e-006
field max 0.000888551054
statistic Basic.rack[2].node[8].app 	hops
field count 98410
field mean 4.7389594553399
field stddev 1.0916832843179
field sum 466361
field sqrsum 2327347
field min 3
field max 6
statistic Basic.rack[2].node[9].app 	throughput
field count 99028
field mean 49514.5
field stddev 28587.065565858
field sum 4903321906
field sqrsum 3.2371240891221e+014
field min 1
field max 99028
statistic Basic.rack[2].node[9].app 	"End-to-End Delay"
field count 99028
field mean 0.0002181411287589
field stddev 0.00024324028246161
field sum 21.602079698736
field sqrsum 0.010571317192756
field min 8.992e-006
field max 0.000876068854
statistic Basic.rack[2].node[9].app 	hops
field count 99028
field mean 4.7420325564487
field stddev 1.0909444956668
field sum 469594
field sqrsum 2344688
field min 3
field max 6
statistic Basic.rack[2].eps.queue[0] 	dropsum
field count 0
field mean nan
field stddev nan
field sum 0
field sqrsum 0
field min nan
field max nan
statistic Basic.rack[2].eps.queue[1] 	dropsum
field count 0
field mean nan
field stddev nan
field sum 0
field sqrsum 0
field min nan
field max nan
statistic Basic.rack[2].eps.queue[2] 	dropsum
field count 0
field mean nan
field stddev nan
field sum 0
field sqrsum 0
field min nan
field max nan
statistic Basic.rack[2].eps.queue[3] 	dropsum
field count 0
field mean nan
field stddev nan
field sum 0
field sqrsum 0
field min nan
field max nan
statistic Basic.rack[3].node[0].app 	throughput
field count 99449
field mean 49725
field stddev 28708.597797524
field sum 4945101525
field sqrsum 3.2785858274032e+014
field min 1
field max 99449
statistic Basic.rack[3].node[0].app 	"End-to-End Delay"
field count 99449
field mean 9.1701256868735e-005
field stddev 0.00012957063834654
field sum 9.1195982943388
field sqrsum 0.0025058663781044
field min 8.992e-006
field max 0.000460264411
statistic Basic.rack[3].node[0].app 	hops
field count 99449
field mean 4.7449245341834
field stddev 1.0879885735697
field sum 471878
field sqrsum 2356744
field min 3
field max 6
statistic Basic.rack[3].node[1].app 	throughput
field count 98858
field mean 49429.5
field stddev 28537.990792976
field sum 4886501511
field sqrsum 3.2204813975013e+014
field min 1
field max 98858
statistic Basic.rack[3].node[1].app 	"End-to-End Delay"
field count 98858
field mean 9.1245861680215e-005
field stddev 0.00012928036477163
field sum 9.0203833939827
field sqrsum 0.0024753104962847
field min 8.992e-006
field max 0.000454499531
statistic Basic.rack[3].node[1].app 	hops
field count 98858
field mean 4.7397883833377
field stddev 1.0877904886755
field sum 468566
field sqrsum 2337880
field min 3
field max 6
statistic Basic.rack[3].node[2].app 	throughput
field count 99441
field mean 49721
field stddev 28706.288396447
field sum 4944305961
field sqrsum 3.2777946748052e+014
field min 1
field max 99441
statistic Basic.rack[3].node[2].app 	"End-to-End Delay"
field count 99441
field mean 9.2300858600685e-005
field stddev 0.00013009584018706
field sum 9.1784896801107
field sqrsum 0.0025301972820543
field min 8.992e-006
field max 0.000449872659
statistic Basic.rack[3].node[2].app 	hops
field count 99441
field mean 4.7462414899287
field stddev 1.0884027067682
field sum 471971
field sqrsum 2357887
field min 3
field max 6
statistic Basic.rack[3].node[3].app 	throughput
field count 99867
field mean 49934
field stddev 28829.264003786
field sum 4986758778
field sqrsum 3.3201008817461e+014
field min 1
field max 99867
statistic Basic.rack[3].node[3].app 	"End-to-End Delay"
field count 99867
field mean 9.1938316680431e-005
field stddev 0.0001302510493402
field sum 9.1816038719246
field sqrsum 0.0025384014348291
field min 8.992e-006
field max 0.000445873069
statistic Basic.rack[3].node[3].app 	hops
field count 99867
field mean 4.738171768452
field stddev 1.0906287384878
field sum 473187
field sqrsum 2360829
field min 3
field max 6
statistic Basic.rack[3].node[4].app 	throughput
field count 99245
field mean 49623
field stddev 28649.708070066
field sum 4924834635
field sqrsum 3.258451171786e+014
field min 1
field max 99245
statistic Basic.rack[3].node[4].app 	"End-to-End Delay"
field count 99245
field mean 9.1660055126572e-005
field stddev 0.00012983600331821
field sum 9.0968021710367
field sqrsum 0.0025068079790927
field min 8.992e-006
field max 0.000453225127
statistic Basic.rack[3].node[4].app 	hops
field count 99245
field mean 4.7393521084186
field stddev 1.0900821036003
field sum 470357
field sqrsum 2347117
field min 3
field max 6
statistic Basic.rack[3].node[5].app 	throughput
field count 98989
field mean 49495
field stddev 28575.807235609
field sum 4899460555
field sqrsum 3.2333010040612e+014
field min 1
field max 98989
statistic Basic.rack[3].node[5].app 	"End-to-End Delay"
field count 98989
field mean 9.1922176715146e-005
field stddev 0.00012970681385159
field sum 9.0992843508556
field sqrsum 0.0025017860361835
field min 8.992e-006
field max 0.000449926348
statistic Basic.rack[3].node[5].app 	hops
field count 98989
field mean 4.7454767701462
field stddev 1.0867914996758
field sum 469750
field sqrsum 2346104
field min 3
field max 6
statistic Basic.rack[3].node[6].app 	throughput
field count 99195
field mean 49598
field stddev 28635.274313336
field sum 4919873610
field sqrsum 3.2535288178717e+014
field min 1
field max 99195
statistic Basic.rack[3].node[6].app 	"End-to-End Delay"
field count 99195
field mean 9.2175525933118e-005
field stddev 0.00012996185287676
field sum 9.1433512949357
field sqrsum 0.0025181881276563
field min 8.992e-006
field max 0.000460928714
statistic Basic.rack[3].node[6].app 	hops
field count 99195
field mean 4.7472957306316
field stddev 1.0854217764007
field sum 470908
field sqrsum 2352404
field min 3
field max 6
statistic Basic.rack[3].node[7].app 	throughput
field count 99757
field mean 49879
field stddev 28797.50973898
field sum 4975779403
field sqrsum 3.3091420919652e+014
field min 1
field max 99757
statistic Basic.rack[3].node[7].app 	"End-to-End Delay"
field count 99757
field mean 9.1880814128559e-005
field stddev 0.00012975372126035
field sum 9.1657543750227
field sqrsum 0.0025216518012942
field min 8.992e-006
field max 0.000448537021
statistic Basic.rack[3].node[7].app 	hops
field count 99757
field mean 4.7444289623786
field stddev 1.0872518237683
field sum 473290
field sqrsum 2363414
field min 3
field max 6
statistic Basic.rack[3].node[8].app 	throughput
field count 99315
field mean 49658
field stddev 28669.915329488
field sum 4931784270
field sqrsum 3.2653508044479e+014
field min 1
field max 99315
statistic Basic.rack[3].node[8].app 	"End-to-End Delay"
field count 99315
field mean 9.2317910021838e-005
field stddev 0.00013008235265728
field sum 9.1685532338189
field sqrsum 0.0025269554266829
field min 8.992e-006
field max 0.00045355509
statistic Basic.rack[3].node[8].app 	hops
field count 99315
field mean 4.7416704425313
field stddev 1.0915662022086
field sum 470919
field sqrsum 2351277
field min 3
field max 6
statistic Basic.rack[3].node[9].app 	throughput
field count 99297
field mean 49649
field stddev 28664.719177065
field sum 4929996753
field sqrsum 3.2635756838734e+014
field min 1
field max 99297
statistic Basic.rack[3].node[9].app 	"End-to-End Delay"
field count 99297
field mean 9.1906830984267e-005
field stddev 0.00012965561733183
field sum 9.1260725962447
field sqrsum 0.0025079716745327
field min 8.992e-006
field max 0.0004536952
statistic Basic.rack[3].node[9].app 	hops
field count 99297
field mean 4.745500871124
field stddev 1.0879745831334
field sum 471214
field sqrsum 2353682
field min 3
field max 6
statistic Basic.rack[3].eps.queue[0] 	dropsum
field count 0
field mean nan
field stddev nan
field sum 0
field sqrsum 0
field min nan
field max nan
statistic Basic.rack[3].eps.queue[1] 	dropsum
field count 0
field mean nan
field stddev nan
field sum 0
field sqrsum 0
field min nan
field max nan
statistic Basic.rack[3].eps.queue[2] 	dropsum
field count 0
field mean nan
field stddev nan
field sum 0
field sqrsum 0
field min nan
field max nan
statistic Basic.rack[3].eps.queue[3] 	dropsum
field count 0
field mean nan
field stddev nan
field sum 0
field sqrsum 0
field min nan
field max nan
statistic Basic.rack[4].node[0].app 	throughput
field count 98617
field mean 49309
field stddev 28468.420085538
field sum 4862705653
field sqrsum 3.1969858315648e+014
field min 1
field max 98617
statistic Basic.rack[4].node[0].app 	"End-to-End Delay"
field count 98617
field mean 0.00016563915274365
field stddev 0.00016653948356494
field sum 16.334836326121
field sqrsum 0.0054408426148455
field min 8.992e-006
field max 0.00057890811
statistic Basic.rack[4].node[0].app 	hops
field count 98617
field mean 4.4808805783993
field stddev 1.4998857489093
field sum 441891
field sqrsum 2201913
field min 3
field max 6
statistic Basic.rack[4].node[1].app 	throughput
field count 97997
field mean 48999
field stddev 28289.441502087
field sum 4801755003
field sqrsum 3.13706657271e+014
field min 1
field max 97997
statistic Basic.rack[4].node[1].app 	"End-to-End Delay"
field count 97997
field mean 0.00016512242448699
field stddev 0.00016626408915983
field sum 16.181502232451
field sqrsum 0.0053809055452011
field min 8.992e-006
field max 0.000601812885
statistic Basic.rack[4].node[1].app 	hops
field count 97997
field mean 4.4765962223333
field stddev 1.4998250623731
field sum 438693
field sqrsum 2184291
field min 3
field max 6
statistic Basic.rack[4].node[2].app 	throughput
field count 98680
field mean 49340.5
field stddev 28486.606619018
field sum 4868920540
field sqrsum 3.2031167556498e+014
field min 1
field max 98680
statistic Basic.rack[4].node[2].app 	"End-to-End Delay"
field count 98680
field mean 0.00016615873584413
field stddev 0.00016657312769886
field sum 16.396544053099
field sqrsum 0.0054624364515365
field min 8.992e-006
field max 0.000607534764
statistic Basic.rack[4].node[2].app 	hops
field count 98680
field mean 4.4864410214836
field stddev 1.4999463168535
field sum 442722
field sqrsum 2208258
field min 3
field max 6
statistic Basic.rack[4].node[3].app 	throughput
field count 98795
field mean 49398
field stddev 28519.804259497
field sum 4880275410
field sqrsum 3.2143283284577e+014
field min 1
field max 98795
statistic Basic.rack[4].node[3].app 	"End-to-End Delay"
field count 98795
field mean 0.00016618719683806
field stddev 0.00016683155616677
field sum 16.418464111616
field sqrsum 0.0054782490220298
field min 8.992e-006
field max 0.000627936136
statistic Basic.rack[4].node[3].app 	hops
field count 98795
field mean 4.4827977124348
field stddev 1.4999089482264
field sum 442878
field sqrsum 2207592
field min 3
field max 6
statistic Basic.rack[4].node[4].app 	throughput
field count 98726
field mean 49363.5
field stddev 28499.885675209
field sum 4873460901
field sqrsum 3.2075982509505e+014
field min 1
field max 98726
statistic Basic.rack[4].node[4].app 	"End-to-End Delay"
field count 98726
field mean 0.00016501251497035
field stddev 0.00016623744036608
field sum 16.291025552963
field sqrsum 0.0054164772754985
field min 8.992e-006
field max 0.000621370506
statistic Basic.rack[4].node[4].app 	hops
field count 98726
field mean 4.4776654579341
field stddev 1.4998413095251
field sum 442062
field sqrsum 2201490
field min 3
field max 6
statistic Basic.rack[4].node[5].app 	throughput
field count 97996
field mean 48998.5
field stddev 28289.152826952
field sum 4801657006
field sqrsum 3.1369705385899e+014
field min 1
field max 97996
statistic Basic.rack[4].node[5].app 	"End-to-End Delay"
field count 97996
field mean 0.00016503519610008
field stddev 0.00016647732933655
field sum 16.172789077023
field sqrsum 0.0053849815592426
field min 8.992e-006
field max 0.000557893288
statistic Basic.rack[4].node[5].app 	hops
field count 97996
field mean 4.4738866892526
field stddev 1.4997803333816
field sum 438423
field sqrsum 2181879
field min 3
field max 6
statistic Basic.rack[4].node[6].app 	throughput
field count 98986
field mean 49493.5
field stddev 28574.941210205
field sum 4899163591
field sqrsum 3.2330070453368e+014
field min 1
field max 98986
statistic Basic.rack[4].node[6].app 	"End-to-End Delay"
field count 98986
field mean 0.00016517837910117
field stddev 0.00016637103871021
field sum 16.350347033709
field sqrsum 0.0054405615605618
field min 8.992e-006
field max 0.000587730819
statistic Basic.rack[4].node[6].app 	hops
field count 98986
field mean 4.4768149031176
field stddev 1.499828382372
field sum 443142
field sqrsum 2206530
field min 3
field max 6
statistic Basic.rack[4].node[7].app 	throughput
field count 98108
field mean 49054.5
field stddev 28321.484442027
field sum 4812638886
field sqrsum 3.1477385476475e+014
field min 1
field max 98108
statistic Basic.rack[4].node[7].app 	"End-to-End Delay"
field count 98108
field mean 0.00016600513365041
field stddev 0.00016705158175003
field sum 16.286431652175
field sqrsum 0.0054414278644092
field min 8.992e-006
field max 0.000606240243
statistic Basic.rack[4].node[7].app 	hops
field count 98108
field mean 4.4774941900762
field stddev 1.4998387971713
field sum 439278
field sqrsum 2187558
field min 3
field max 6
statistic Basic.rack[4].node[8].app 	throughput
field count 98540
field mean 49270.5
field stddev 28446.192100174
field sum 4855115070
field sqrsum 3.1895031103689e+014
field min 1
field max 98540
statistic Basic.rack[4].node[8].app 	"End-to-End Delay"
field count 98540
field mean 0.00016525552007787
field stddev 0.00016670917415168
field sum 16.284278948474
field sqrsum 0.0054296578242384
field min 8.992e-006
field max 0.000602673648
statistic Basic.rack[4].node[8].app 	hops
field count 98540
field mean 4.473361071646
field stddev 1.499771047158
field sum 440805
field sqrsum 2193525
field min 3
field max 6
statistic Basic.rack[4].node[9].app 	throughput
field count 98544
field mean 49272.5
field stddev 28447.346800712
field sum 4855509240
field sqrsum 3.1898915353412e+014
field min 1
field max 98544
statistic Basic.rack[4].node[9].app 	"End-to-End Delay"
field count 98544
field mean 0.00016548933850808
field stddev 0.00016675367948075
field sum 16.307981373941
field sqrsum 0.0054389615195357
field min 8.992e-006
field max 0.000604357423
statistic Basic.rack[4].node[9].app 	hops
field count 98544
field mean 4.4730577204092
field stddev 1.499765627982
field sum 440793
field sqrsum 2193345
field min 3
field max 6
statistic Basic.rack[4].eps.queue[0] 	dropsum
field count 0
field mean nan
field stddev nan
field sum 0
field sqrsum 0
field min nan
field max nan
statistic Basic.rack[4].eps.queue[1] 	dropsum
field count 24746
field mean 12373.5
field stddev 7143.6992167924
field sum 306194631
field sqrsum 5051496957361
field min 1
field max 24746
statistic Basic.rack[4].eps.queue[2] 	dropsum
field count 0
field mean nan
field stddev nan
field sum 0
field sqrsum 0
field min nan
field max nan
statistic Basic.rack[4].eps.queue[3] 	dropsum
field count 0
field mean nan
field stddev nan
field sum 0
field sqrsum 0
field min nan
field max nan
statistic Basic.rack[5].node[0].app 	throughput
field count 97094
field mean 48547.5
field stddev 28028.767855544
field sum 4713670965
field sqrsum 3.051143503408e+014
field min 1
field max 97094
statistic Basic.rack[5].node[0].app 	"End-to-End Delay"
field count 97094
field mean 0.00032278005972047
field stddev 0.0002439783664577
field sum 31.340007118499
field sqrsum 0.015895433235614
field min 8.992e-006
field max 0.000837162864
statistic Basic.rack[5].node[0].app 	hops
field count 97094
field mean 4.4863122335057
field stddev 1.4999452712606
field sum 435594
field sqrsum 2172654
field min 3
field max 6
statistic Basic.rack[5].node[1].app 	throughput
field count 98255
field mean 49128
field stddev 28363.919686813
field sum 4827071640
field sqrsum 3.1619089168268e+014
field min 1
field max 98255
statistic Basic.rack[5].node[1].app 	"End-to-End Delay"
field count 98255
field mean 0.00032202753646282
field stddev 0.00024330354592241
field sum 31.640815595155
field sqrsum 0.016005518153034
field min 8.992e-006
field max 0.000837201142
statistic Basic.rack[5].node[1].app 	hops
field count 98255
field mean 4.483955015012
field stddev 1.4999218165183
field sum 440571
field sqrsum 2196549
field min 3
field max 6
statistic Basic.rack[5].node[2].app 	throughput
field count 97317
field mean 48659
field stddev 28093.14241056
field sum 4735347903
field sqrsum 3.0722147970014e+014
field min 1
field max 97317
statistic Basic.rack[5].node[2].app 	"End-to-End Delay"
field count 97317
field mean 0.00032288012727936
field stddev 0.00024441316969394
field sum 31.421725346445
field sqrsum 0.015958894182638
field min 8.992e-006
field max 0.000836271597
statistic Basic.rack[5].node[2].app 	hops
field count 97317
field mean 4.4893800672031
field stddev 1.4999701118436
field sum 436893
field sqrsum 2180331
field min 3
field max 6
statistic Basic.rack[5].node[3].app 	throughput
field count 98390
field mean 49195.5
field stddev 28402.890829984
field sum 4840345245
field sqrsum 3.1749599255212e+014
field min 1
field max 98390
statistic Basic.rack[5].node[3].app 	"End-to-End Delay"
field count 98390
field mean 0.00032358436532147
field stddev 0.00024377872079539
field sum 31.837465703979
field sqrsum 0.016149173992278
field min 8.992e-006
field max 0.000837138353
statistic Basic.rack[5].node[3].app 	hops
field count 98390
field mean 4.4839008029271
field stddev 1.4999212251413
field sum 441171
field sqrsum 2199519
field min 3
field max 6
statistic Basic.rack[5].node[4].app 	throughput
field count 97781
field mean 48891
field stddev 28227.087673014
field sum 4780610871
field sqrsum 3.1163686792179e+014
field min 1
field max 97781
statistic Basic.rack[5].node[4].app 	"End-to-End Delay"
field count 97781
field mean 0.00032220457710713
field stddev 0.00024422469079479
field sum 31.505485754112
field sqrsum 0.015983368220241
field min 8.992e-006
field max 0.00083652036
statistic Basic.rack[5].node[4].app 	hops
field count 97781
field mean 4.4898906740573
field stddev 1.4999736035426
field sum 439026
field sqrsum 2191176
field min 3
field max 6
statistic Basic.rack[5].node[5].app 	throughput
field count 97681
field mean 48841
field stddev 28198.220159554
field sum 4770837721
field sqrsum 3.1068172322924e+014
field min 1
field max 97681
statistic Basic.rack[5].node[5].app 	"End-to-End Delay"
field count 97681
field mean 0.00032120650464263
field stddev 0.00024296949959981
field sum 31.375772579996
field sqrsum 0.015844560722114
field min 8.992e-006
field max 0.000837210273
statistic Basic.rack[5].node[5].app 	hops
field count 97681
field mean 4.4841985647158
field stddev 1.4999244469255
field sum 438021
field sqrsum 2183931
field min 3
field max 6
statistic Basic.rack[5].node[6].app 	throughput
field count 98738
field mean 49369.5
field stddev 28503.349776824
field sum 4874645691
field sqrsum 3.2087680237387e+014
field min 1
field max 98738
statistic Basic.rack[5].node[6].app 	"End-to-End Delay"
field count 98738
field mean 0.00032234651706861
field stddev 0.00024340523822057
field sum 31.82785040232
field sqrsum 0.016109379885368
field min 8.992e-006
field max 0.000837063299
statistic Basic.rack[5].node[6].app 	hops
field count 98738
field mean 4.4868135874739
field stddev 1.4999496340123
field sum 443019
field sqrsum 2209887
field min 3
field max 6
statistic Basic.rack[5].node[7].app 	throughput
field count 97534
field mean 48767.5
field stddev 28155.784914768
field sum 4756489345
field sqrsum 3.0928120667994e+014
field min 1
field max 97534
statistic Basic.rack[5].node[7].app 	"End-to-End Delay"
field count 97534
field mean 0.00032343955603204
field stddev 0.00024315841131841
field sum 31.546353658029
field sqrsum 0.015970076047014
field min 8.992e-006
field max 0.000836033621
statistic Basic.rack[5].node[7].app 	hops
field count 97534
field mean 4.4940636085878
field stddev 1.4999959426648
field sum 438324
field sqrsum 2189304
field min 3
field max 6
statistic Basic.rack[5].node[8].app 	throughput
field count 97536
field mean 48768.5
field stddev 28156.362265037
field sum 4756684416
field sqrsum 3.0930023302746e+014
field min 1
field max 97536
statistic Basic.rack[5].node[8].app 	"End-to-End Delay"
field count 97536
field mean 0.00032171677620973
field stddev 0.0002436300023083
field sum 31.378967484393
field sqrsum 0.015884386562512
field min 8.992e-006
field max 0.000837014985
statistic Basic.rack[5].node[8].app 	hops
field count 97536
field mean 4.4911417322835
field stddev 1.4999815328632
field sum 438048
field sqrsum 2186784
field min 3
field max 6
statistic Basic.rack[5].node[9].app 	throughput
field count 97239
field mean 48620
field stddev 28070.625750061
field sum 4727760180
field sqrsum 3.0648335734874e+014
field min 1
field max 97239
statistic Basic.rack[5].node[9].app 	"End-to-End Delay"
field count 97239
field mean 0.0003216665486886
field stddev 0.00024344926244302
field sum 31.278533527931
field sqrsum 0.015824315311549
field min 8.992e-006
field max 0.000837023982
statistic Basic.rack[5].node[9].app 	hops
field count 97239
field mean 4.4852682565637
field stddev 1.4999353694761
field sum 436143
field sqrsum 2174985
field min 3
field max 6
statistic Basic.rack[5].eps.queue[0] 	dropsum
field count 0
field mean nan
field stddev nan
field sum 0
field sqrsum 0
field min nan
field max nan
statistic Basic.rack[5].eps.queue[1] 	dropsum
field count 0
field mean nan
field stddev nan
field sum 0
field sqrsum 0
field min nan
field max nan
statistic Basic.rack[5].eps.queue[2] 	dropsum
field count 0
field mean nan
field stddev nan
field sum 0
field sqrsum 0
field min nan
field max nan
statistic Basic.rack[5].eps.queue[3] 	dropsum
field count 0
field mean nan
field stddev nan
field sum 0
field sqrsum 0
field min nan
field max nan
statistic Basic.rack[6].node[0].app 	throughput
field count 98621
field mean 49311
field stddev 28469.574786076
field sum 4863100131
field sqrsum 3.1973748637961e+014
field min 1
field max 98621
statistic Basic.rack[6].node[0].app 	"End-to-End Delay"
field count 98621
field mean 0.00015065927286016
field stddev 0.00015730517462955
field sum 14.858168148742
field sqrsum 0.0046788646190548
field min 8.992e-006
field max 0.000481289172
statistic Basic.rack[6].node[0].app 	hops
field count 98621
field mean 4.7420731892802
field stddev 1.090965627303
field sum 467668
field sqrsum 2335094
field min 3
field max 6
statistic Basic.rack[6].node[1].app 	throughput
field count 98584
field mean 49292.5
field stddev 28458.893806096
field sum 4859451820
field sqrsum 3.1937775196586e+014
field min 1
field max 98584
statistic Basic.rack[6].node[1].app 	"End-to-End Delay"
field count 98584
field mean 0.00015017148180424
field stddev 0.00015734113265305
field sum 14.804505362189
field sqrsum 0.0046637581292944
field min 8.992e-006
field max 0.00049103147
statistic Basic.rack[6].node[1].app 	hops
field count 98584
field mean 4.7445325813519
field stddev 1.089918990231
field sum 467735
field sqrsum 2336293
field min 3
field max 6
statistic Basic.rack[6].node[2].app 	throughput
field count 99148
field mean 49574.5
field stddev 28621.70658201
field sum 4915212526
field sqrsum 3.2489063275607e+014
field min 1
field max 99148
statistic Basic.rack[6].node[2].app 	"End-to-End Delay"
field count 99148
field mean 0.00014949082524354
field stddev 0.0001573382314212
field sum 14.821716341247
field sqrsum 0.0046701262268899
field min 8.992e-006
field max 0.000507753162
statistic Basic.rack[6].node[2].app 	hops
field count 99148
field mean 4.7379977407512
field stddev 1.0937799493785
field sum 469763
field sqrsum 2344351
field min 3
field max 6
statistic Basic.rack[6].node[3].app 	throughput
field count 99008
field mean 49504.5
field stddev 28581.292063166
field sum 4901341536
field sqrsum 3.235163156447e+014
field min 1
field max 99008
statistic Basic.rack[6].node[3].app 	"End-to-End Delay"
field count 99008
field mean 0.00014953697045763
field stddev 0.00015746638760305
field sum 14.805356371069
field sqrsum 0.0046688923671686
field min 8.992e-006
field max 0.0004881985
statistic Basic.rack[6].node[3].app 	hops
field count 99008
field mean 4.7377585649644
field stddev 1.0952088818954
field sum 469076
field sqrsum 2341126
field min 3
field max 6
statistic Basic.rack[6].node[4].app 	throughput
field count 98598
field mean 49299.5
field stddev 28462.935257981
field sum 4860832101
field sqrsum 3.195138359403e+014
field min 1
field max 98598
statistic Basic.rack[6].node[4].app 	"End-to-End Delay"
field count 98598
field mean 0.00015068858289837
field stddev 0.00015764107109162
field sum 14.857592896613
field sqrsum 0.004689074806028
field min 8.992e-006
field max 0.000476537169
statistic Basic.rack[6].node[4].app 	hops
field count 98598
field mean 4.740593115479
field stddev 1.0922729214065
field sum 467413
field sqrsum 2333447
field min 3
field max 6
statistic Basic.rack[6].node[5].app 	throughput
field count 99089
field mean 49545
field stddev 28604.674749069
field sum 4909364505
field sqrsum 3.2431098274546e+014
field min 1
field max 99089
statistic Basic.rack[6].node[5].app 	"End-to-End Delay"
field count 99089
field mean 0.00014953655535749
field stddev 0.00015753372517836
field sum 14.817427733819
field sqrsum 0.0046748015698243
field min 8.992e-006
field max 0.000486522822
statistic Basic.rack[6].node[5].app 	hops
field count 99089
field mean 4.739153690117
field stddev 1.092120287326
field sum 469598
field sqrsum 2343682
field min 3
field max 6
statistic Basic.rack[6].node[6].app 	throughput
field count 98841
field mean 49421
field stddev 28533.083315688
field sum 4884821061
field sqrsum 3.2188202726722e+014
field min 1
field max 98841
statistic Basic.rack[6].node[6].app 	"End-to-End Delay"
field count 98841
field mean 0.00014900329400003
field stddev 0.00015718236817155
field sum 14.727634582257
field sqrsum 0.0046364364476245
field min 8.992e-006
field max 0.000490269256
statistic Basic.rack[6].node[6].app 	hops
field count 98841
field mean 4.73813498447
field stddev 1.0889290003935
field sum 468322
field sqrsum 2336174
field min 3
field max 6
statistic Basic.rack[6].node[7].app 	throughput
field count 98904
field mean 49452.5
field stddev 28551.269849168
field sum 4891050060
field sqrsum 3.2249790710618e+014
field min 1
field max 98904
statistic Basic.rack[6].node[7].app 	"End-to-End Delay"
field count 98904
field mean 0.00014986007703537
field stddev 0.00015723656286389
field sum 14.821761059106
field sqrsum 0.0046664024238813
field min 8.992e-006
field max 0.000484603814
statistic Basic.rack[6].node[7].app 	hops
field count 98904
field mean 4.7477655099895
field stddev 1.0882725951315
field sum 469573
field sqrsum 2346557
field min 3
field max 6
statistic Basic.rack[6].node[8].app 	throughput
field count 99029
field mean 49515
field stddev 28587.354240993
field sum 4903420935
field sqrsum 3.2372221565506e+014
field min 1
field max 99029
statistic Basic.rack[6].node[8].app 	"End-to-End Delay"
field count 99029
field mean 0.00014991929849467
field stddev 0.00015735808885634
field sum 14.846358210628
field sqrsum 0.0046778441767692
field min 8.992e-006
field max 0.000487466846
statistic Basic.rack[6].node[8].app 	hops
field count 99029
field mean 4.741873592584
field stddev 1.0914655907986
field sum 469583
field sqrsum 2344675
field min 3
field max 6
statistic Basic.rack[6].node[9].app 	throughput
field count 99381
field mean 49691
field stddev 28688.967888371
field sum 4938341271
field sqrsum 3.2718650868259e+014
field min 1
field max 99381
statistic Basic.rack[6].node[9].app 	"End-to-End Delay"
field count 99381
field mean 0.00014918931450134
field stddev 0.00015724584348152
field sum 14.826583264458
field sqrsum 0.0046692630445619
field min 8.992e-006
field max 0.0004885969
statistic Basic.rack[6].node[9].app 	hops
field count 99381
field mean 4.7397792334551
field stddev 1.0910890220965
field sum 471044
field sqrsum 2350954
field min 3
field max 6
statistic Basic.rack[6].eps.queue[0] 	dropsum
field count 0
field mean nan
field stddev nan
field sum 0
field sqrsum 0
field min nan
field max nan
statistic Basic.rack[6].eps.queue[1] 	dropsum
field count 0
field mean nan
field stddev nan
field sum 0
field sqrsum 0
field min nan
field max nan
statistic Basic.rack[6].eps.queue[2] 	dropsum
field count 0
field mean nan
field stddev nan
field sum 0
field sqrsum 0
field min nan
field max nan
statistic Basic.rack[6].eps.queue[3] 	dropsum
field count 0
field mean nan
field stddev nan
field sum 0
field sqrsum 0
field min nan
field max nan
statistic Basic.rack[7].node[0].app 	throughput
field count 99190
field mean 49595.5
field stddev 28633.830937663
field sum 4919377645
field sqrsum 3.2530368553092e+014
field min 1
field max 99190
statistic Basic.rack[7].node[0].app 	"End-to-End Delay"
field count 99190
field mean 9.4114599578733e-005
field stddev 0.00013734103804609
field sum 9.3352271322145
field sqrsum 0.0027495396999293
field min 8.992e-006
field max 0.000500105996
statistic Basic.rack[7].node[0].app 	hops
field count 99190
field mean 4.7482508317371
field stddev 1.0944404379208
field sum 470979
field sqrsum 2355135
field min 3
field max 6
statistic Basic.rack[7].node[1].app 	throughput
field count 99641
field mean 49821
field stddev 28764.023423367
field sum 4964214261
field sqrsum 3.2976117019162e+014
field min 1
field max 99641
statistic Basic.rack[7].node[1].app 	"End-to-End Delay"
field count 99641
field mean 9.4141498142537e-005
field stddev 0.00013727308693311
field sum 9.3803530164205
field sqrsum 0.0027606867215435
field min 8.992e-006
field max 0.000492808131
statistic Basic.rack[7].node[1].app 	hops
field count 99641
field mean 4.7442317921338
field stddev 1.0911524556535
field sum 472720
field sqrsum 2361326
field min 3
field max 6
statistic Basic.rack[7].node[2].app 	throughput
field count 99355
field mean 49678
field stddev 28681.462334872
field sum 4935757690
field sqrsum 3.2692978211253e+014
field min 1
field max 99355
statistic Basic.rack[7].node[2].app 	"End-to-End Delay"
field count 99355
field mean 9.3901979811077e-005
field stddev 0.00013704302640881
field sum 9.3296312041295
field sqrsum 0.0027420175586612
field min 8.992e-006
field max 0.000513859508
statistic Basic.rack[7].node[2].app 	hops
field count 99355
field mean 4.7464244376227
field stddev 1.090871937049
field sum 471581
field sqrsum 2356555
field min 3
field max 6
statistic Basic.rack[7].node[3].app 	throughput
field count 99399
field mean 49700
field stddev 28694.164040794
field sum 4940130300
field sqrsum 3.273643211699e+014
field min 1
field max 99399
statistic Basic.rack[7].node[3].app 	"End-to-End Delay"
field count 99399
field mean 9.4933123724922e-005
field stddev 0.00013808193403575
field sum 9.4362575651335
field sqrsum 0.002790997352091
field min 8.992e-006
field max 0.00049586207
statistic Basic.rack[7].node[3].app 	hops
field count 99399
field mean 4.7442026579744
field stddev 1.0952453300798
field sum 471569
field sqrsum 2356453
field min 3
field max 6
statistic Basic.rack[7].node[4].app 	throughput
field count 99773
field mean 49887
field stddev 28802.128541134
field sum 4977375651
field sqrsum 3.310734596767e+014
field min 1
field max 99773
statistic Basic.rack[7].node[4].app 	"End-to-End Delay"
field count 99773
field mean 9.4715149784755e-005
field stddev 0.00013773775029499
field sum 9.4500146394744
field sqrsum 0.0027879027928471
field min 8.992e-006
field max 0.000500059172
statistic Basic.rack[7].node[4].app 	hops
field count 99773
field mean 4.7491706173013
field stddev 1.0937802011275
field sum 473839
field sqrsum 2369705
field min 3
field max 6
statistic Basic.rack[7].node[5].app 	throughput
field count 99402
field mean 49701.5
field stddev 28695.030066198
field sum 4940428503
field sqrsum 3.273939628463e+014
field min 1
field max 99402
statistic Basic.rack[7].node[5].app 	"End-to-End Delay"
field count 99402
field mean 9.3583390164007e-005
field stddev 0.00013701707993356
field sum 9.3023761490826
field sqrsum 0.002736670481528
field min 8.992e-006
field max 0.000484446553
statistic Basic.rack[7].node[5].app 	hops
field count 99402
field mean 4.746011146657
field stddev 1.0946520130821
field sum 471763
field sqrsum 2358101
field min 3
field max 6
statistic Basic.rack[7].node[6].app 	throughput
field count 99487
field mean 49744
field stddev 28719.567452639
field sum 4948881328
field sqrsum 3.282345540796e+014
field min 1
field max 99487
statistic Basic.rack[7].node[6].app 	"End-to-End Delay"
field count 99487
field mean 9.4256611299522e-005
field stddev 0.00013729300324793
field sum 9.3773074883555
field sqrsum 0.0027591215255169
field min 8.992e-006
field max 0.000494168973
statistic Basic.rack[7].node[6].app 	hops
field count 99487
field mean 4.7457557268789
field stddev 1.0934426937654
field sum 472141
field sqrsum 2359613
field min 3
field max 6
statistic Basic.rack[7].node[7].app 	throughput
field count 99264
field mean 49632.5
field stddev 28655.192897623
field sum 4926720480
field sqrsum 3.2603229672464e+014
field min 1
field max 99264
statistic Basic.rack[7].node[7].app 	"End-to-End Delay"
field count 99264
field mean 9.4468103919614e-005
field stddev 0.00013777798179668
field sum 9.3772818674766
field sqrsum 0.0027701409615753
field min 8.992e-006
field max 0.000491847625
statistic Basic.rack[7].node[7].app 	hops
field count 99264
field mean 4.7491336234687
field stddev 1.0944759535611
field sum 471418
field sqrsum 2357732
field min 3
field max 6
statistic Basic.rack[7].node[8].app 	throughput
field count 99308
field mean 49654.5
field stddev 28667.894603546
field sum 4931089086
field sqrsum 3.2646604033135e+014
field min 1
field max 99308
statistic Basic.rack[7].node[8].app 	"End-to-End Delay"
field count 99308
field mean 9.4615182146711e-005
field stddev 0.00013754011910068
field sum 9.3960445086256
field sqrsum 0.0027676272208022
field min 8.992e-006
field max 0.00049953744
statistic Basic.rack[7].node[8].app 	hops
field count 99308
field mean 4.7494663068434
field stddev 1.0905822060308
field sum 471660
field sqrsum 2358246
field min 3
field max 6
statistic Basic.rack[7].node[9].app 	throughput
field count 99026
field mean 49513.5
field stddev 28586.488215589
field sum 4903123851
field sqrsum 3.236927960207e+014
field min 1
field max 99026
statistic Basic.rack[7].node[9].app 	"End-to-End Delay"
field count 99026
field mean 9.3861936643543e-005
field stddev 0.00013722385504728
field sum 9.2947721380635
field sqrsum 0.0027371043262086
field min 8.992e-006
field max 0.000503963371
statistic Basic.rack[7].node[9].app 	hops
field count 99026
field mean 4.7458243289641
field stddev 1.0939709848198
field sum 469960
field sqrsum 2348858
field min 3
field max 6
statistic Basic.rack[7].eps.queue[0] 	dropsum
field count 0
field mean nan
field stddev nan
field sum 0
field sqrsum 0
field min nan
field max nan
statistic Basic.rack[7].eps.queue[1] 	dropsum
field count 0
field mean nan
field stddev nan
field sum 0
field sqrsum 0
field min nan
field max nan
statistic Basic.rack[7].eps.queue[2] 	dropsum
field count 0
field mean nan
field stddev nan
field sum 0
field sqrsum 0
field min nan
field max nan
statistic Basic.rack[7].eps.queue[3] 	dropsum
field count 0
field mean nan
field stddev nan
field sum 0
field sqrsum 0
field min nan
field max nan
statistic Basic.rack[8].node[0].app 	throughput
field count 99757
field mean 49879
field stddev 28797.50973898
field sum 4975779403
field sqrsum 3.3091420919652e+014
field min 1
field max 99757
statistic Basic.rack[8].node[0].app 	"End-to-End Delay"
field count 99757
field mean 8.9698885474508e-005
field stddev 0.00013329899283289
field sum 8.9480917182805
field sqrsum 0.0025751604596361
field min 8.992e-006
field max 0.000463953244
statistic Basic.rack[8].node[0].app 	hops
field count 99757
field mean 4.4923764748338
field stddev 1.4999881453917
field sum 448146
field sqrsum 2237688
field min 3
field max 6
statistic Basic.rack[8].node[1].app 	throughput
field count 99458
field mean 49729.5
field stddev 28711.195873735
field sum 4945996611
field sqrsum 3.2794760262343e+014
field min 1
field max 99458
statistic Basic.rack[8].node[1].app 	"End-to-End Delay"
field count 99458
field mean 8.9125175873194e-005
field stddev 0.00013285804025261
field sum 8.8642117419962
field sqrsum 0.0025455656828983
field min 8.992e-006
field max 0.000478237328
statistic Basic.rack[8].node[1].app 	hops
field count 99458
field mean 4.4912224255465
field stddev 1.4999818586417
field sum 446688
field sqrsum 2229948
field min 3
field max 6
statistic Basic.rack[8].node[2].app 	throughput
field count 99304
field mean 49652.5
field stddev 28666.739903007
field sum 4930691860
field sqrsum 3.2642659320758e+014
field min 1
field max 99304
statistic Basic.rack[8].node[2].app 	"End-to-End Delay"
field count 99304
field mean 8.866499114322e-005
field stddev 0.00013225485294147
field sum 8.8047882804863
field sqrsum 0.002517619619314
field min 8.992e-006
field max 0.00046224014
statistic Basic.rack[8].node[2].app 	hops
field count 99304
field mean 4.4852876017079
field stddev 1.4999353989697
field sum 445407
field sqrsum 2221191
field min 3
field max 6
statistic Basic.rack[8].node[3].app 	throughput
field count 99634
field mean 49817.5
field stddev 28762.002697425
field sum 4963516795
field sqrsum 3.2969167607428e+014
field min 1
field max 99634
statistic Basic.rack[8].node[3].app 	"End-to-End Delay"
field count 99634
field mean 8.8928331369345e-005
field stddev 0.00013271427135032
field sum 8.8602853676533
field sqrsum 0.0025427741756464
field min 8.992e-006
field max 0.000467267749
statistic Basic.rack[8].node[3].app 	hops
field count 99634
field mean 4.489943192083
field stddev 1.499973813931
field sum 447351
field sqrsum 2232747
field min 3
field max 6
statistic Basic.rack[8].node[4].app 	throughput
field count 99436
field mean 49718.5
field stddev 28704.845020774
field sum 4943808766
field sqrsum 3.2773002690691e+014
field min 1
field max 99436
statistic Basic.rack[8].node[4].app 	"End-to-End Delay"
field count 99436
field mean 8.9226583509839e-005
field stddev 0.00013297582457367
field sum 8.8723345578843
field sqrsum 0.0025499144404556
field min 8.992e-006
field max 0.000468180661
statistic Basic.rack[8].node[4].app 	hops
field count 99436
field mean 4.4907075908122
field stddev 1.4999787592198
field sum 446538
field sqrsum 2228994
field min 3
field max 6
statistic Basic.rack[8].node[5].app 	throughput
field count 99477
field mean 49739
field stddev 28716.680701293
field sum 4947886503
field sqrsum 3.2813558640146e+014
field min 1
field max 99477
statistic Basic.rack[8].node[5].app 	"End-to-End Delay"
field count 99477
field mean 8.9062983631214e-005
field stddev 0.00013266655338041
field sum 8.8597184226823
field sqrsum 0.0025398917783021
field min 8.992e-006
field max 0.00046225667
statistic Basic.rack[8].node[5].app 	hops
field count 99477
field mean 4.490063029645
field stddev 1.4999746245016
field sum 446658
field sqrsum 2229336
field min 3
field max 6
statistic Basic.rack[8].node[6].app 	throughput
field count 99043
field mean 49522
field stddev 28591.395692877
field sum 4904807446
field sqrsum 3.2385953085193e+014
field min 1
field max 99043
statistic Basic.rack[8].node[6].app 	"End-to-End Delay"
field count 99043
field mean 8.8938758052728e-005
field stddev 0.00013281904935214
field sum 8.8087614138163
field sqrsum 0.002530630305132
field min 8.992e-006
field max 0.000468380651
statistic Basic.rack[8].node[6].app 	hops
field count 99043
field mean 4.4875962965581
field stddev 1.4999562874372
field sum 444465
field sqrsum 2217411
field min 3
field max 6
statistic Basic.rack[8].node[7].app 	throughput
field count 99802
field mean 49901.5
field stddev 28810.500120037
field sum 4980269503
field sqrsum 3.313622313821e+014
field min 1
field max 99802
statistic Basic.rack[8].node[7].app 	"End-to-End Delay"
field count 99802
field mean 8.9009080547225e-005
field stddev 0.00013287549475745
field sum 8.8832842567741
field sqrsum 0.0025527691511145
field min 8.992e-006
field max 0.00046879615
statistic Basic.rack[8].node[7].app 	hops
field count 99802
field mean 4.4897497044147
field stddev 1.4999724914984
field sum 448086
field sqrsum 2236338
field min 3
field max 6
statistic Basic.rack[8].node[8].app 	throughput
field count 99632
field mean 49816.5
field stddev 28761.425347156
field sum 4963317528
field sqrsum 3.2967182240564e+014
field min 1
field max 99632
statistic Basic.rack[8].node[8].app 	"End-to-End Delay"
field count 99632
field mean 8.8739961732508e-005
field stddev 0.0001324610545363
field sum 8.8413398673332
field sqrsum 0.0025326988098506
field min 8.992e-006
field max 0.000460107654
statistic Basic.rack[8].node[8].app 	hops
field count 99632
field mean 4.4857274771158
field stddev 1.4999396242444
field sum 446922
field sqrsum 2228922
field min 3
field max 6
statistic Basic.rack[8].node[9].app 	throughput
field count 99151
field mean 49576
field stddev 28622.572607414
field sum 4915509976
field sqrsum 3.2492012492358e+014
field min 1
field max 99151
statistic Basic.rack[8].node[9].app 	"End-to-End Delay"
field count 99151
field mean 8.8694779887106e-005
field stddev 0.0001325387411018
field sum 8.7941761205864
field sqrsum 0.0025217177643799
field min 8.992e-006
field max 0.000469152542
statistic Basic.rack[8].node[9].app 	hops
field count 99151
field mean 4.4901513852609
field stddev 1.4999752320285
field sum 445203
field sqrsum 2222109
field min 3
field max 6
statistic Basic.rack[8].eps.queue[0] 	dropsum
field count 0
field mean nan
field stddev nan
field sum 0
field sqrsum 0
field min nan
field max nan
statistic Basic.rack[8].eps.queue[1] 	dropsum
field count 0
field mean nan
field stddev nan
field sum 0
field sqrsum 0
field min nan
field max nan
statistic Basic.rack[8].eps.queue[2] 	dropsum
field count 0
field mean nan
field stddev nan
field sum 0
field sqrsum 0
field min nan
field max nan
statistic Basic.rack[8].eps.queue[3] 	dropsum
field count 0
field mean nan
field stddev nan
field sum 0
field sqrsum 0
field min nan
field max nan
statistic Basic.rack[9].node[0].app 	throughput
field count 97798
field mean 48899.5
field stddev 28231.995150302
field sum 4782273301
field sqrsum 3.117994369519e+014
field min 1
field max 97798
statistic Basic.rack[9].node[0].app 	"End-to-End Delay"
field count 97798
field mean 0.00022617948852671
field stddev 0.00015349951322155
field sum 22.119901618935
field sqrsum 0.0073073707828251
field min 8.992e-006
field max 0.000615678962
statistic Basic.rack[9].node[0].app 	hops
field count 97798
field mean 4.2392686967014
field stddev 1.2985211462926
field sum 414592
field sqrsum 1922468
field min 3
field max 6
statistic Basic.rack[9].node[1].app 	throughput
field count 98523
field mean 49262
field stddev 28441.284622886
field sum 4853440026
field sqrsum 3.1878526560107e+014
field min 1
field max 98523
statistic Basic.rack[9].node[1].app 	"End-to-End Delay"
field count 98523
field mean 0.00022617113219386
field stddev 0.00015357415548311
field sum 22.283058457136
field sqrsum 0.007363428021846
field min 8.992e-006
field max 0.00060568386
statistic Basic.rack[9].node[1].app 	hops
field count 98523
field mean 4.2410807628676
field stddev 1.2973570194791
field sum 417844
field sqrsum 1937936
field min 3
field max 6
statistic Basic.rack[9].node[2].app 	throughput
field count 98462
field mean 49231.5
field stddev 28423.675439675
field sum 4847431953
field sqrsum 3.1819351244818e+014
field min 1
field max 98462
statistic Basic.rack[9].node[2].app 	"End-to-End Delay"
field count 98462
field mean 0.00022613045366197
field stddev 0.00015355129192685
field sum 22.265256728465
field sqrsum 0.0073563659892989
field min 8.992e-006
field max 0.000590976363
statistic Basic.rack[9].node[2].app 	hops
field count 98462
field mean 4.2419308971989
field stddev 1.2993938948371
field sum 417669
field sqrsum 1937967
field min 3
field max 6
statistic Basic.rack[9].node[3].app 	throughput
field count 97691
field mean 48846
field stddev 28201.1069109
field sum 4771814586
field sqrsum 3.1077714975215e+014
field min 1
field max 97691
statistic Basic.rack[9].node[3].app 	"End-to-End Delay"
field count 97691
field mean 0.00022600431546225
field stddev 0.00015339050311778
field sum 22.078587581822
field sqrsum 0.0072883695441837
field min 8.992e-006
field max 0.000576267017
statistic Basic.rack[9].node[3].app 	hops
field count 97691
field mean 4.2391724928601
field stddev 1.2994196784371
field sum 414129
field sqrsum 1920513
field min 3
field max 6
statistic Basic.rack[9].node[4].app 	throughput
field count 98528
field mean 49264.5
field stddev 28442.727998559
field sum 4853932656
field sqrsum 3.1883380246446e+014
field min 1
field max 98528
statistic Basic.rack[9].node[4].app 	"End-to-End Delay"
field count 98528
field mean 0.00022619978599756
field stddev 0.00015359774279521
field sum 22.287012514768
field sqrsum 0.0073657927118539
field min 8.992e-006
field max 0.000581215176
statistic Basic.rack[9].node[4].app 	hops
field count 98528
field mean 4.2450876908087
field stddev 1.299160413624
field sum 418260
field sqrsum 1941846
field min 3
field max 6
statistic Basic.rack[9].node[5].app 	throughput
field count 97839
field mean 48920
field stddev 28243.83083082
field sum 4786283880
field sqrsum 3.1219174778484e+014
field min 1
field max 97839
statistic Basic.rack[9].node[5].app 	"End-to-End Delay"
field count 97839
field mean 0.00022624134002196
field stddev 0.0001535805276855
field sum 22.135226466408
field sqrsum 0.0073156060983827
field min 8.992e-006
field max 0.00057984622
statistic Basic.rack[9].node[5].app 	hops
field count 97839
field mean 4.2487045043388
field stddev 1.2991783405029
field sum 415689
field sqrsum 1931277
field min 3
field max 6
statistic Basic.rack[9].node[6].app 	throughput
field count 97390
field mean 48695.5
field stddev 28114.215695386
field sum 4742454745
field sqrsum 3.0791335922862e+014
field min 1
field max 97390
statistic Basic.rack[9].node[6].app 	"End-to-End Delay"
field count 97390
field mean 0.00022621280032384
field stddev 0.00015347461005559
field sum 22.030864623539
field sqrsum 0.0072776084887799
field min 8.992e-006
field max 0.000613845071
statistic Basic.rack[9].node[6].app 	hops
field count 97390
field mean 4.2412670705411
field stddev 1.2987456505211
field sum 413057
field sqrsum 1916155
field min 3
field max 6
statistic Basic.rack[9].node[7].app 	throughput
field count 97786
field mean 48893.5
field stddev 28228.531048687
field sum 4781099791
field sqrsum 3.1168467647508e+014
field min 1
field max 97786
statistic Basic.rack[9].node[7].app 	"End-to-End Delay"
field count 97786
field mean 0.00022529876409484
field stddev 0.00015344554301628
field sum 22.031064945778
field sqrsum 0.0072659718118355
field min 8.992e-006
field max 0.000582454938
statistic Basic.rack[9].node[7].app 	hops
field count 97786
field mean 4.2395843985847
field stddev 1.2989941345987
field sum 414572
field sqrsum 1922614
field min 3
field max 6
statistic Basic.rack[9].node[8].app 	throughput
field count 98523
field mean 49262
field stddev 28441.284622886
field sum 4853440026
field sqrsum 3.1878526560107e+014
field min 1
field max 98523
statistic Basic.rack[9].node[8].app 	"End-to-End Delay"
field count 98523
field mean 0.00022557610779159
field stddev 0.00015335586551431
field sum 22.22443486795
field sqrsum 0.0073303440283854
field min 8.992e-006
field max 0.000593363318
statistic Basic.rack[9].node[8].app 	hops
field count 98523
field mean 4.2427656486303
field stddev 1.2997632145112
field sum 418010
field sqrsum 1939960
field min 3
field max 6
statistic Basic.rack[9].node[9].app 	throughput
field count 98328
field mean 49164.5
field stddev 28384.992971639
field sum 4834246956
field sqrsum 3.1689616787536e+014
field min 1
field max 98328
statistic Basic.rack[9].node[9].app 	"End-to-End Delay"
field count 98328
field mean 0.00022508584392686
field stddev 0.00015352721979946
field sum 22.13224086164
field sqrsum 0.0072992812083921
field min 8.992e-006
field max 0.000598304418
statistic Basic.rack[9].node[9].app 	hops
field count 98328
field mean 4.2422300870556
field stddev 1.3009381852231
field sum 417130
field sqrsum 1935974
field min 3
field max 6
statistic Basic.rack[9].eps.queue[0] 	dropsum
field count 0
field mean nan
field stddev nan
field sum 0
field sqrsum 0
field min nan
field max nan
statistic Basic.rack[9].eps.queue[1] 	dropsum
field count 32650
field mean 16325.5
field stddev 9425.3874809828
field sum 533027575
field sqrsum 11602411225025
field min 1
field max 32650
statistic Basic.rack[9].eps.queue[2] 	dropsum
field count 0
field mean nan
field stddev nan
field sum 0
field sqrsum 0
field min nan
field max nan
statistic Basic.rack[9].eps.queue[3] 	dropsum
field count 0
field mean nan
field stddev nan
field sum 0
field sqrsum 0
field min nan
field max nan
statistic Basic.rack[10].node[0].app 	throughput
field count 93131
field mean 46566
field stddev 26884.748297129
field sum 4336738146
field sqrsum 2.6925795242947e+014
field min 1
field max 93131
statistic Basic.rack[10].node[0].app 	"End-to-End Delay"
field count 93131
field mean 0.00032421002545952
field stddev 0.00010345480683595
field sum 30.194003881071
field sqrsum 0.010785959569968
field min 8.992e-006
field max 0.000557605085
statistic Basic.rack[10].node[0].app 	hops
field count 93131
field mean 4.6904682651319
field stddev 1.0773087308507
field sum 436828
field sqrsum 2157014
field min 3
field max 6
statistic Basic.rack[10].node[1].app 	throughput
field count 92654
field mean 46327.5
field stddev 26747.050257926
field sum 4292428185
field sqrsum 2.6514185817806e+014
field min 1
field max 92654
statistic Basic.rack[10].node[1].app 	"End-to-End Delay"
field count 92654
field mean 0.0003238007898201
field stddev 0.00010404653709252
field sum 30.001438379992
field sqrsum 0.010717521346496
field min 8.992e-006
field max 0.000530877215
statistic Basic.rack[10].node[1].app 	hops
field count 92654
field mean 4.6894575517517
field stddev 1.0786965779902
field sum 434497
field sqrsum 2145365
field min 3
field max 6
statistic Basic.rack[10].node[2].app 	throughput
field count 93287
field mean 46644
field stddev 26929.781618127
field sum 4351278828
field sqrsum 2.706132824447e+014
field min 1
field max 93287
statistic Basic.rack[10].node[2].app 	"End-to-End Delay"
field count 93287
field mean 0.00032412835302113
field stddev 0.00010393246713472
field sum 30.236961668282
field sqrsum 0.010808328014211
field min 8.992e-006
field max 0.000539504017
statistic Basic.rack[10].node[2].app 	hops
field count 93287
field mean 4.6881773451821
field stddev 1.0813768071727
field sum 437346
field sqrsum 2159442
field min 3
field max 6
statistic Basic.rack[10].node[3].app 	throughput
field count 92985
field mean 46493
field stddev 26842.601727478
field sum 4323151605
field sqrsum 2.6799360904448e+014
field min 1
field max 92985
statistic Basic.rack[10].node[3].app 	"End-to-End Delay"
field count 92985
field mean 0.00032379757165086
field stddev 0.00010375731221614
field sum 30.108317199955
field sqrsum 0.010750026671526
field min 8.992e-006
field max 0.000545249881
statistic Basic.rack[10].node[3].app 	hops
field count 92985
field mean 4.6840350594182
field stddev 1.0810172808516
field sum 435545
field sqrsum 2148769
field min 3
field max 6
statistic Basic.rack[10].node[4].app 	throughput
field count 93220
field mean 46610.5
field stddev 26910.440384109
field sum 4345030810
field sqrsum 2.7003062974907e+014
field min 1
field max 93220
statistic Basic.rack[10].node[4].app 	"End-to-End Delay"
field count 93220
field mean 0.00032437208787375
field stddev 0.00010351305063688
field sum 30.237966031591
field sqrsum 0.010807189252785
field min 8.992e-006
field max 0.000531529481
statistic Basic.rack[10].node[4].app 	hops
field count 93220
field mean 4.6905385110491
field stddev 1.0833719553427
field sum 437252
field sqrsum 2160358
field min 3
field max 6
statistic Basic.rack[10].node[5].app 	throughput
field count 92990
field mean 46495.5
field stddev 26844.045103151
field sum 4323616545
field sqrsum 2.6803684288522e+014
field min 1
field max 92990
statistic Basic.rack[10].node[5].app 	"End-to-End Delay"
field count 92990
field mean 0.00032438827080894
field stddev 0.00010343314824478
field sum 30.164865302523
field sqrsum 0.010779963514584
field min 8.992e-006
field max 0.000528926911
statistic Basic.rack[10].node[5].app 	hops
field count 92990
field mean 4.6886546940531
field stddev 1.0781541238881
field sum 435998
field sqrsum 2152336
field min 3
field max 6
statistic Basic.rack[10].node[6].app 	throughput
field count 93216
field mean 46608.5
field stddev 26909.28568357
field sum 4344657936
field sqrsum 2.699958709941e+014
field min 1
field max 93216
statistic Basic.rack[10].node[6].app 	"End-to-End Delay"
field count 93216
field mean 0.00032448217361782
field stddev 0.00010319821991052
field sum 30.246930295958
field sqrsum 0.010807317561428
field min 8.992e-006
field max 0.000543035628
statistic Basic.rack[10].node[6].app 	hops
field count 93216
field mean 4.6929389804325
field stddev 1.0785289619381
field sum 437457
field sqrsum 2161389
field min 3
field max 6
statistic Basic.rack[10].node[7].app 	throughput
field count 93004
field mean 46502.5
field stddev 26848.086555035
field sum 4324918510
field sqrsum 2.6815792237553e+014
field min 1
field max 93004
statistic Basic.rack[10].node[7].app 	"End-to-End Delay"
field count 93004
field mean 0.0003238473615599
field stddev 0.00010385915861707
field sum 30.119100014517
field sqrsum 0.010757188841499
field min 8.992e-006
field max 0.000558290817
statistic Basic.rack[10].node[7].app 	hops
field count 93004
field mean 4.6931959915703
field stddev 1.0771735890829
field sum 436486
field sqrsum 2156426
field min 3
field max 6
statistic Basic.rack[10].node[8].app 	throughput
field count 92738
field mean 46369.5
field stddev 26771.298969232
field sum 4300214691
field sqrsum 2.6586364008087e+014
field min 1
field max 92738
statistic Basic.rack[10].node[8].app 	"End-to-End Delay"
field count 92738
field mean 0.0003243231977928
field stddev 0.00010344684519357
field sum 30.077084716908
field sqrsum 0.010747098096567
field min 8.992e-006
field max 0.000564772559
statistic Basic.rack[10].node[8].app 	hops
field count 92738
field mean 4.6896202204059
field stddev 1.0804371876574
field sum 434906
field sqrsum 2147800
field min 3
field max 6
statistic Basic.rack[10].node[9].app 	throughput
field count 92598
field mean 46299.5
field stddev 26730.884450388
field sum 4287241101
field sqrsum 2.646613967273e+014
field min 1
field max 92598
statistic Basic.rack[10].node[9].app 	"End-to-End Delay"
field count 92598
field mean 0.00032402397266488
field stddev 0.00010354943895239
field sum 30.003971820822
field sqrsum 0.01071487620971
field min 8.992e-006
field max 0.000524222259
statistic Basic.rack[10].node[9].app 	hops
field count 92598
field mean 4.6919371908681
field stddev 1.0791950358507
field sum 434464
field sqrsum 2146322
field min 3
field max 6
statistic Basic.rack[10].eps.queue[0] 	dropsum
field count 32793
field mean 16397
field stddev 9466.6680252346
field sum 537706821
field sqrsum 11755525756309
field min 1
field max 32793
statistic Basic.rack[10].eps.queue[1] 	dropsum
field count 0
field mean nan
field stddev nan
field sum 0
field sqrsum 0
field min nan
field max nan
statistic Basic.rack[10].eps.queue[2] 	dropsum
field count 0
field mean nan
field stddev nan
field sum 0
field sqrsum 0
field min nan
field max nan
statistic Basic.rack[10].eps.queue[3] 	dropsum
field count 0
field mean nan
field stddev nan
field sum 0
field sqrsum 0
field min nan
field max nan
statistic Basic.rack[11].node[0].app 	throughput
field count 85540
field mean 42770.5
field stddev 24693.415350386
field sum 3658588570
field sqrsum 2.0863833038139e+014
field min 1
field max 85540
statistic Basic.rack[11].node[0].app 	"End-to-End Delay"
field count 85540
field mean 0.00051627365461882
field stddev 0.00015582556850071
field sum 44.162048416094
field sqrsum 0.024876726580712
field min 1.80336e-005
field max 0.000927077447
statistic Basic.rack[11].node[0].app 	hops
field count 85540
field mean 5.0544423661445
field stddev 1.2084328927341
field sum 432357
field sqrsum 2310237
field min 3
field max 6
statistic Basic.rack[11].node[1].app 	throughput
field count 85453
field mean 42727
field stddev 24668.300613676
field sum 3651150331
field sqrsum 2.0800238320674e+014
field min 1
field max 85453
statistic Basic.rack[11].node[1].app 	"End-to-End Delay"
field count 85453
field mean 0.0005170158753839
field stddev 0.00015589579851159
field sum 44.180557599181
field sqrsum 0.02491883234354
field min 1.80336e-005
field max 0.000891340101
statistic Basic.rack[11].node[1].app 	hops
field count 85453
field mean 5.0533743695365
field stddev 1.2076731591585
field sum 431826
field sqrsum 2306808
field min 3
field max 6
statistic Basic.rack[11].node[2].app 	throughput
field count 85369
field mean 42685
field stddev 24644.051902369
field sum 3643975765
field sqrsum 2.0738959271344e+014
field min 1
field max 85369
statistic Basic.rack[11].node[2].app 	"End-to-End Delay"
field count 85369
field mean 0.00051656542402632
field stddev 0.00015584032513017
field sum 44.098673683703
field sqrsum 0.024853114984191
field min 1.80336e-005
field max 0.000887647363
statistic Basic.rack[11].node[2].app 	hops
field count 85369
field mean 5.0535088849582
field stddev 1.2079181654069
field sum 431413
field sqrsum 2304707
field min 3
field max 6
statistic Basic.rack[11].node[3].app 	throughput
field count 85136
field mean 42568.5
[...]
field min 3
field max 6
statistic Basic.rack[13].node[2].app 	throughput
field count 98800
field mean 49400.5
field stddev 28521.24763517
field sum 4880769400
field sqrsum 3.214816380698e+014
field min 1
field max 98800
statistic Basic.rack[13].node[2].app 	"End-to-End Delay"
field count 98800
field mean 0.00015266669838572
field stddev 0.00015285247744555
field sum 15.083469800509
field sqrsum 0.0046110715010552
field min 8.992e-006
field max 0.000419040612
statistic Basic.rack[13].node[2].app 	hops
field count 98800
field mean 4.2527732793522
field stddev 1.3015442950642
field sum 420174
field sqrsum 1954272
field min 3
field max 6
statistic Basic.rack[13].node[3].app 	throughput
field count 98726
field mean 49363.5
field stddev 28499.885675209
field sum 4873460901
field sqrsum 3.2075982509505e+014
field min 1
field max 98726
statistic Basic.rack[13].node[3].app 	"End-to-End Delay"
field count 98726
field mean 0.00015235606217662
field stddev 0.00015254902388807
field sum 15.041504594449
field sqrsum 0.0045891140921634
field min 8.992e-006
field max 0.000419021413
statistic Basic.rack[13].node[3].app 	hops
field count 98726
field mean 4.2533273909608
field stddev 1.3014213238468
field sum 419914
field sqrsum 1953242
field min 3
field max 6
statistic Basic.rack[13].node[4].app 	throughput
field count 98328
field mean 49164.5
field stddev 28384.992971639
field sum 4834246956
field sqrsum 3.1689616787536e+014
field min 1
field max 98328
statistic Basic.rack[13].node[4].app 	"End-to-End Delay"
field count 98328
field mean 0.00015282365332232
field stddev 0.00015256326457331
field sum 15.026844183877
field sqrsum 0.0045850722011683
field min 8.992e-006
field max 0.000419034696
statistic Basic.rack[13].node[4].app 	hops
field count 98328
field mean 4.255796924579
field stddev 1.3004519678344
field sum 418464
field sqrsum 1947186
field min 3
field max 6
statistic Basic.rack[13].node[5].app 	throughput
field count 98343
field mean 49172
field stddev 28389.323098658
field sum 4835721996
field sqrsum 3.1704121740908e+014
field min 1
field max 98343
statistic Basic.rack[13].node[5].app 	"End-to-End Delay"
field count 98343
field mean 0.00015271088710595
field stddev 0.00015286757666779
field sum 15.018046770661
field sqrsum 0.0045915238782127
field min 8.992e-006
field max 0.000419031136
statistic Basic.rack[13].node[5].app 	hops
field count 98343
field mean 4.2554426852953
field stddev 1.3023056176371
field sum 418493
field sqrsum 1947661
field min 3
field max 6
statistic Basic.rack[13].node[6].app 	throughput
field count 98814
field mean 49407.5
field stddev 28525.289087054
field sum 4882152705
field sqrsum 3.2161831897882e+014
field min 1
field max 98814
statistic Basic.rack[13].node[6].app 	"End-to-End Delay"
field count 98814
field mean 0.0001525769769847
field stddev 0.00015275624479959
field sum 15.076741403766
field sqrsum 0.0046061126424177
field min 8.992e-006
field max 0.000419035517
statistic Basic.rack[13].node[6].app 	hops
field count 98814
field mean 4.2492966583682
field stddev 1.3024065808426
field sum 419890
field sqrsum 1951850
field min 3
field max 6
statistic Basic.rack[13].node[7].app 	throughput
field count 98924
field mean 49462.5
field stddev 28557.04335186
field sum 4893028350
field sqrsum 3.2269358867305e+014
field min 1
field max 98924
statistic Basic.rack[13].node[7].app 	"End-to-End Delay"
field count 98924
field mean 0.00015278071047113
field stddev 0.00015257637825872
field sum 15.113679002646
field sqrsum 0.0046119616594666
field min 8.992e-006
field max 0.000419041553
statistic Basic.rack[13].node[7].app 	hops
field count 98924
field mean 4.2551857991994
field stddev 1.3032006490772
field sum 420940
field sqrsum 1959182
field min 3
field max 6
statistic Basic.rack[13].node[8].app 	throughput
field count 98380
field mean 49190.5
field stddev 28400.004078638
field sum 4839361390
field sqrsum 3.1739919548593e+014
field min 1
field max 98380
statistic Basic.rack[13].node[8].app 	"End-to-End Delay"
field count 98380
field mean 0.00015225634750806
field stddev 0.00015241878566541
field sum 14.978979467843
field sqrsum 0.0045661350863753
field min 8.992e-006
field max 0.000419039498
statistic Basic.rack[13].node[8].app 	hops
field count 98380
field mean 4.2552957918276
field stddev 1.3030672405318
field sum 418636
field sqrsum 1948466
field min 3
field max 6
statistic Basic.rack[13].node[9].app 	throughput
field count 98461
field mean 49231
field stddev 28423.386764541
field sum 4847333491
field sqrsum 3.1818381768273e+014
field min 1
field max 98461
statistic Basic.rack[13].node[9].app 	"End-to-End Delay"
field count 98461
field mean 0.00015239432428759
field stddev 0.00015263172150627
field sum 15.004897563681
field sqrsum 0.004580428944907
field min 8.992e-006
field max 0.000419040927
statistic Basic.rack[13].node[9].app 	hops
field count 98461
field mean 4.2475599475935
field stddev 1.3024950130277
field sum 418219
field sqrsum 1943447
field min 3
field max 6
statistic Basic.rack[13].eps.queue[0] 	dropsum
field count 0
field mean nan
field stddev nan
field sum 0
field sqrsum 0
field min nan
field max nan
statistic Basic.rack[13].eps.queue[1] 	dropsum
field count 30951
field mean 15476
field stddev 8934.9284272455
field sum 478997676
field sqrsum 9883797712476
field min 1
field max 30951
statistic Basic.rack[13].eps.queue[2] 	dropsum
field count 0
field mean nan
field stddev nan
field sum 0
field sqrsum 0
field min nan
field max nan
statistic Basic.rack[13].eps.queue[3] 	dropsum
field count 0
field mean nan
field stddev nan
field sum 0
field sqrsum 0
field min nan
field max nan
statistic Basic.rack[14].node[0].app 	throughput
field count 97405
field mean 48703
field stddev 28118.545822405
field sum 4743915715
field sqrsum 3.0805565478496e+014
field min 1
field max 97405
statistic Basic.rack[14].node[0].app 	"End-to-End Delay"
field count 97405
field mean 0.00029983659486254
field stddev 0.00010617876899887
field sum 29.205583522586
field sqrsum 0.0098550286881574
field min 8.992e-006
field max 0.000572409802
statistic Basic.rack[14].node[0].app 	hops
field count 97405
field mean 4.7507828140239
field stddev 1.0909958702658
field sum 462750
field sqrsum 2314362
field min 3
field max 6
statistic Basic.rack[14].node[1].app 	throughput
field count 97211
field mean 48606
field stddev 28062.542846292
field sum 4725037866
field sqrsum 3.0621867900711e+014
field min 1
field max 97211
statistic Basic.rack[14].node[1].app 	"End-to-End Delay"
field count 97211
field mean 0.00029887377549673
field stddev 0.00010666578487827
field sum 29.053818589813
field sqrsum 0.0097894399457427
field min 8.992e-006
field max 0.000579345845
statistic Basic.rack[14].node[1].app 	hops
field count 97211
field mean 4.7520650955139
field stddev 1.0885507010059
field sum 461953
field sqrsum 2310419
field min 3
field max 6
statistic Basic.rack[14].node[2].app 	throughput
field count 97485
field mean 48743
field stddev 28141.639833172
field sum 4751711355
field sqrsum 3.0881530486524e+014
field min 1
field max 97485
statistic Basic.rack[14].node[2].app 	"End-to-End Delay"
field count 97485
field mean 0.00029979258918606
field stddev 0.00010604221803133
field sum 29.225280556803
field sqrsum 0.0098577254290689
field min 8.992e-006
field max 0.000576451185
statistic Basic.rack[14].node[2].app 	hops
field count 97485
field mean 4.7538390521619
field stddev 1.0889696349164
field sum 463428
field sqrsum 2318664
field min 3
field max 6
statistic Basic.rack[14].node[3].app 	throughput
field count 98103
field mean 49052
field stddev 28320.041066354
field sum 4812148356
field sqrsum 3.1472573082856e+014
field min 1
field max 98103
statistic Basic.rack[14].node[3].app 	"End-to-End Delay"
field count 98103
field mean 0.00029947120130731
field stddev 0.0001066022860437
field sum 29.379023261851
field sqrsum 0.0099130071664905
field min 8.992e-006
field max 0.000587785029
statistic Basic.rack[14].node[3].app 	hops
field count 98103
field mean 4.7451148282927
field stddev 1.0924502726573
field sum 465510
field sqrsum 2325978
field min 3
field max 6
statistic Basic.rack[14].node[4].app 	throughput
field count 97932
field mean 48966.5
field stddev 28270.677618338
field sum 4795387278
field sqrsum 3.1308284306849e+014
field min 1
field max 97932
statistic Basic.rack[14].node[4].app 	"End-to-End Delay"
field count 97932
field mean 0.00029930912866578
field stddev 0.0001064640079306
field sum 29.311941588497
field sqrsum 0.0098833389384867
field min 8.992e-006
field max 0.000571452098
statistic Basic.rack[14].node[4].app 	hops
field count 97932
field mean 4.7485602254626
field stddev 1.0895536380751
field sum 465036
field sqrsum 2324508
field min 3
field max 6
statistic Basic.rack[14].node[5].app 	throughput
field count 98062
field mean 49031.5
field stddev 28308.205385836
field sum 4808126953
field sqrsum 3.1433129955238e+014
field min 1
field max 98062
statistic Basic.rack[14].node[5].app 	"End-to-End Delay"
field count 98062
field mean 0.00029949104365944
field stddev 0.00010642670585583
field sum 29.368690723332
field sqrsum 0.0099063618454025
field min 8.992e-006
field max 0.000563003927
statistic Basic.rack[14].node[5].app 	hops
field count 98062
field mean 4.7475168770778
field stddev 1.0893238220492
field sum 465551
field sqrsum 2326573
field min 3
field max 6
statistic Basic.rack[14].node[6].app 	throughput
field count 97616
field mean 48808.5
field stddev 28179.456275805
field sum 4764490536
field sqrsum 3.100619269383e+014
field min 1
field max 97616
statistic Basic.rack[14].node[6].app 	"End-to-End Delay"
field count 97616
field mean 0.00029969724924235
field stddev 0.00010607831649577
field sum 29.255246682041
field sqrsum 0.0098661404065567
field min 8.992e-006
field max 0.000560304627
statistic Basic.rack[14].node[6].app 	hops
field count 97616
field mean 4.759148090477
field stddev 1.0846105152692
field sum 464569
field sqrsum 2325785
field min 3
field max 6
statistic Basic.rack[14].node[7].app 	throughput
field count 97197
field mean 48599
field stddev 28058.501394408
field sum 4723677003
field sqrsum 3.060863969994e+014
field min 1
field max 97197
statistic Basic.rack[14].node[7].app 	"End-to-End Delay"
field count 97197
field mean 0.0002999440385203
field stddev 0.00010602753377317
field sum 29.153660712058
field sqrsum 0.0098371284099051
field min 8.992e-006
field max 0.000570052314
statistic Basic.rack[14].node[7].app 	hops
field count 97197
field mean 4.7522042861405
field stddev 1.0893686921379
field sum 461900
field sqrsum 2310388
field min 3
field max 6
statistic Basic.rack[14].node[8].app 	throughput
field count 97243
field mean 48622
field stddev 28071.7804506
field sum 4728149146
field sqrsum 3.0652118098603e+014
field min 1
field max 97243
statistic Basic.rack[14].node[8].app 	"End-to-End Delay"
field count 97243
field mean 0.00029968993272547
field stddev 0.00010625072051719
field sum 29.142748128023
field sqrsum 0.0098315741303111
field min 8.992e-006
field max 0.000574705573
statistic Basic.rack[14].node[8].app 	hops
field count 97243
field mean 4.7482697983402
field stddev 1.0887429570676
field sum 461736
field sqrsum 2307714
field min 3
field max 6
statistic Basic.rack[14].node[9].app 	throughput
field count 97309
field mean 48655
field stddev 28090.833009483
field sum 4734569395
field sqrsum 3.0714572036184e+014
field min 1
field max 97309
statistic Basic.rack[14].node[9].app 	"End-to-End Delay"
field count 97309
field mean 0.00029961867954039
field stddev 0.00010642978852936
field sum 29.155594087396
field sqrsum 0.0098377974990274
field min 8.992e-006
field max 0.00059265294
statistic Basic.rack[14].node[9].app 	hops
field count 97309
field mean 4.7549147560863
field stddev 1.0885392055528
field sum 462696
field sqrsum 2315382
field min 3
field max 6
statistic Basic.rack[14].eps.queue[0] 	dropsum
field count 32408
field mean 16204.5
field stddev 9355.5280984026
field sum 525155436
field sqrsum 11346333298404
field min 1
field max 32408
statistic Basic.rack[14].eps.queue[1] 	dropsum
field count 0
field mean nan
field stddev nan
field sum 0
field sqrsum 0
field min nan
field max nan
statistic Basic.rack[14].eps.queue[2] 	dropsum
field count 0
field mean nan
field stddev nan
field sum 0
field sqrsum 0
field min nan
field max nan
statistic Basic.rack[14].eps.queue[3] 	dropsum
field count 0
field mean nan
field stddev nan
field sum 0
field sqrsum 0
field min nan
field max nan
statistic Basic.rack[15].node[0].app 	throughput
field count 98215
field mean 49108
field stddev 28352.372681429
field sum 4823142220
field sqrsum 3.1580488313894e+014
field min 1
field max 98215
statistic Basic.rack[15].node[0].app 	"End-to-End Delay"
field count 98215
field mean 0.00038069223702455
field stddev 0.0001604480350024
field sum 37.389688059366
field sqrsum 0.016762343163105
field min 8.992e-006
field max 0.000858153539
statistic Basic.rack[15].node[0].app 	hops
field count 98215
field mean 5.0055694140406
field stddev 1.2208519562831
field sum 491622
field sqrsum 2607234
field min 3
field max 6
statistic Basic.rack[15].node[1].app 	throughput
field count 97391
field mean 48696
field stddev 28114.50437052
field sum 4742552136
field sqrsum 3.079228442355e+014
field min 1
field max 97391
statistic Basic.rack[15].node[1].app 	"End-to-End Delay"
field count 97391
field mean 0.00037951832716708
field stddev 0.00016109922770085
field sum 36.961669401129
field sqrsum 0.016555189828357
field min 8.992e-006
field max 0.000897718701
statistic Basic.rack[15].node[1].app 	hops
field count 97391
field mean 5.0047232290458
field stddev 1.222146610752
field sum 487415
field sqrsum 2584843
field min 3
field max 6
statistic Basic.rack[15].node[2].app 	throughput
field count 98212
field mean 49106.5
field stddev 28351.506656026
field sum 4822847578
field sqrsum 3.1577594516955e+014
field min 1
field max 98212
statistic Basic.rack[15].node[2].app 	"End-to-End Delay"
field count 98212
field mean 0.0003799313380736
field stddev 0.00016080164034275
field sum 37.313816574884
field sqrsum 0.016716146540897
field min 8.992e-006
field max 0.000873629638
statistic Basic.rack[15].node[2].app 	hops
field count 98212
field mean 5.0011607542866
field stddev 1.2232781538355
field sum 491174
field sqrsum 2603404
field min 3
field max 6
statistic Basic.rack[15].node[3].app 	throughput
field count 97106
field mean 48553.5
field stddev 28032.23195716
field sum 4714836171
field sqrsum 3.0522749242614e+014
field min 1
field max 97106
statistic Basic.rack[15].node[3].app 	"End-to-End Delay"
field count 97106
field mean 0.00037969507590198
field stddev 0.00016079845569358
field sum 36.870670040538
field sqrsum 0.016510372659935
field min 8.992e-006
field max 0.00085308087
statistic Basic.rack[15].node[3].app 	hops
field count 97106
field mean 5.0124400140053
field stddev 1.2185637067762
field sum 486738
field sqrsum 2583936
field min 3
field max 6
statistic Basic.rack[15].node[4].app 	throughput
field count 97519
field mean 48760
field stddev 28151.454787749
field sum 4755026440
field sqrsum 3.0913853394372e+014
field min 1
field max 97519
statistic Basic.rack[15].node[4].app 	"End-to-End Delay"
field count 97519
field mean 0.00037961008121978
field stddev 0.00016103855135857
field sum 37.019195510471
field sqrsum 0.016581834580699
field min 8.992e-006
field max 0.000854443406
statistic Basic.rack[15].node[4].app 	hops
field count 97519
field mean 5.0033019206514
field stddev 1.223789737587
field sum 487917
field sqrsum 2587245
field min 3
field max 6
statistic Basic.rack[15].node[5].app 	throughput
field count 97379
field mean 48690
field stddev 28111.040268905
field sum 4741383510
field sqrsum 3.0780903700803e+014
field min 1
field max 97379
statistic Basic.rack[15].node[5].app 	"End-to-End Delay"
field count 97379
field mean 0.00038086974728944
field stddev 0.00016084676350701
field sum 37.088715121299
field sqrsum 0.016645302140158
field min 8.992e-006
field max 0.000853699477
statistic Basic.rack[15].node[5].app 	hops
field count 97379
field mean 5.0043027757525
field stddev 1.2182132795267
field sum 487314
field sqrsum 2583180
field min 3
field max 6
statistic Basic.rack[15].node[6].app 	throughput
field count 97080
field mean 48540.5
field stddev 28024.72640366
field sum 4712311740
field sqrsum 3.0498238658338e+014
field min 1
field max 97080
statistic Basic.rack[15].node[6].app 	"End-to-End Delay"
field count 97080
field mean 0.00037999215565252
field stddev 0.00016041372311109
field sum 36.889638470746
field sqrsum 0.016515864684732
field min 8.992e-006
field max 0.000850722129
statistic Basic.rack[15].node[6].app 	hops
field count 97080
field mean 5.017449526164
field stddev 1.217396910849
field sum 487094
field sqrsum 2587846
field min 3
field max 6
statistic Basic.rack[15].node[7].app 	throughput
field count 97082
field mean 48541.5
field stddev 28025.303753929
field sum 4712505903
field sqrsum 3.0500123621866e+014
field min 1
field max 97082
statistic Basic.rack[15].node[7].app 	"End-to-End Delay"
field count 97082
field mean 0.00038017664556831
field stddev 0.0001609053171842
field sum 36.908309105062
field sqrsum 0.01654515482789
field min 8.992e-006
field max 0.000859698994
statistic Basic.rack[15].node[7].app 	hops
field count 97082
field mean 5.0028738592118
field stddev 1.21898148717
field sum 485689
field sqrsum 2574095
field min 3
field max 6
statistic Basic.rack[15].node[8].app 	throughput
field count 97731
field mean 48866
field stddev 28212.653916284
field sum 4775723046
field sqrsum 3.1115905124677e+014
field min 1
field max 97731
statistic Basic.rack[15].node[8].app 	"End-to-End Delay"
field count 97731
field mean 0.00037984507958014
field stddev 0.00016077415516192
field sum 37.122639472447
field sqrsum 0.016627009134682
field min 8.992e-006
field max 0.000905627457
statistic Basic.rack[15].node[8].app 	hops
field count 97731
field mean 5.0063234797557
field stddev 1.2219055729466
field sum 489273
field sqrsum 2595375
field min 3
field max 6
statistic Basic.rack[15].node[9].app 	throughput
field count 97872
field mean 48936.5
field stddev 28253.357110262
field sum 4789513128
field sqrsum 3.1250774908012e+014
field min 1
field max 97872
statistic Basic.rack[15].node[9].app 	"End-to-End Delay"
field count 97872
field mean 0.00037993807680653
field stddev 0.0001606413049265
field sum 37.185299453209
field sqrsum 0.016653733860757
field min 8.992e-006
field max 0.000858005095
statistic Basic.rack[15].node[9].app 	hops
field count 97872
field mean 5.0055276279222
field stddev 1.2226888252844
field sum 489901
field sqrsum 2598527
field min 3
field max 6
statistic Basic.rack[15].eps.queue[0] 	dropsum
field count 0
field mean nan
field stddev nan
field sum 0
field sqrsum 0
field min nan
field max nan
statistic Basic.rack[15].eps.queue[1] 	dropsum
field count 27028
field mean 13514.5
field stddev 7802.4558740608
field sum 365269906
field sqrsum 6581798436214
field min 1
field max 27028
statistic Basic.rack[15].eps.queue[2] 	dropsum
field count 0
field mean nan
field stddev nan
field sum 0
field sqrsum 0
field min nan
field max nan
statistic Basic.rack[15].eps.queue[3] 	dropsum
field count 0
field mean nan
field stddev nan
field sum 0
field sqrsum 0
field min nan
field max nan
